/*---------------------------------------------------------------------------*\
| =========                 |                                                 |
| \\      /  F ield         | OpenFOAM: The Open Source CFD Toolbox           |
|  \\    /   O peration     | Version:  2112                                  |
|   \\  /    A nd           | Website:  www.openfoam.com                      |
|    \\/     M anipulation  |                                                 |
\*---------------------------------------------------------------------------*/
Build  : _d44c8318-20220111 OPENFOAM=2112 version=2112
Arch   : "LSB;label=32;scalar=64"
Exec   : pimpleFoam
Date   : Jun 16 2022
Time   : 14:28:37
Host   : ENGR-IRVIN
PID    : 9138
I/O    : uncollated
Case   : /mnt/c/Users/olcho/Desktop/RAS/MBR_0.00109
nProcs : 1
trapFpe: Floating point exception trapping enabled (FOAM_SIGFPE).
fileModificationChecking : Monitoring run-time modified files using timeStampMaster (fileModificationSkew 5, maxFileModificationPolls 20)
allowSystemOperations : Allowing user-supplied system call operations

// * * * * * * * * * * * * * * * * * * * * * * * * * * * * * * * * * * * * * //
Create time

Create mesh for time = 0


PIMPLE: max iterations = 50
    field U	: relTol 0, tolerance 1e-05
    field p	: relTol 0, tolerance 0.0005

Reading field p

Reading field U

Reading/calculating face flux field phi

Selecting incompressible transport model Newtonian
Selecting turbulence model type RAS
Selecting RAS turbulence model kEpsilon
RAS
{
    RASModel        kEpsilon;
    turbulence      on;
    printCoeffs     on;
    Cmu             0.09;
    C1              1.44;
    C2              1.92;
    C3              0;
    sigmak          1;
    sigmaEps        1.3;
}

No MRF models present

No finite volume options present
Courant Number mean: 1.47667e-07 max: 2.34914e-05
Courant Number mean: 1.47667e-07 max: 2.34914e-05

Starting time loop

Courant Number mean: 1.47667e-07 max: 2.34914e-05
deltaT = 0.00120482
Time = 0.00120482

PIMPLE: iteration 1
smoothSolver:  Solving for Ux, Initial residual = 1, Final residual = 7.39303e-07, No Iterations 1
smoothSolver:  Solving for Uy, Initial residual = 1, Final residual = 8.14634e-07, No Iterations 1
smoothSolver:  Solving for Uz, Initial residual = 1, Final residual = 1.07229e-06, No Iterations 1
GAMG:  Solving for p, Initial residual = 1, Final residual = 7.39366e-08, No Iterations 22
time step continuity errors : sum local = 2.63161e-14, global = -1.17418e-14, cumulative = -1.17418e-14
PIMPLE: iteration 2
smoothSolver:  Solving for Ux, Initial residual = 0.260465, Final residual = 3.76215e-07, No Iterations 1
smoothSolver:  Solving for Uy, Initial residual = 0.260602, Final residual = 3.72705e-07, No Iterations 1
smoothSolver:  Solving for Uz, Initial residual = 0.275785, Final residual = 4.04379e-07, No Iterations 1
GAMG:  Solving for p, Initial residual = 0.28362, Final residual = 5.8739e-08, No Iterations 20
time step continuity errors : sum local = 5.26575e-14, global = -2.34922e-14, cumulative = -3.5234e-14
PIMPLE: iteration 3
smoothSolver:  Solving for Ux, Initial residual = 0.160911, Final residual = 2.32453e-07, No Iterations 1
smoothSolver:  Solving for Uy, Initial residual = 0.161051, Final residual = 2.3013e-07, No Iterations 1
smoothSolver:  Solving for Uz, Initial residual = 0.17176, Final residual = 2.51513e-07, No Iterations 1
GAMG:  Solving for p, Initial residual = 0.152223, Final residual = 6.9783e-08, No Iterations 17
time step continuity errors : sum local = 8.24641e-14, global = -3.67634e-14, cumulative = -7.19974e-14
PIMPLE: iteration 4
smoothSolver:  Solving for Ux, Initial residual = 0.0955849, Final residual = 1.38119e-07, No Iterations 1
smoothSolver:  Solving for Uy, Initial residual = 0.0957744, Final residual = 1.36599e-07, No Iterations 1
smoothSolver:  Solving for Uz, Initial residual = 0.102814, Final residual = 1.50104e-07, No Iterations 1
GAMG:  Solving for p, Initial residual = 0.112629, Final residual = 9.98452e-08, No Iterations 17
time step continuity errors : sum local = 1.26205e-13, global = 5.62765e-14, cumulative = -1.57209e-14
PIMPLE: iteration 5
smoothSolver:  Solving for Ux, Initial residual = 0.0493086, Final residual = 7.12835e-08, No Iterations 1
smoothSolver:  Solving for Uy, Initial residual = 0.0496114, Final residual = 7.04468e-08, No Iterations 1
smoothSolver:  Solving for Uz, Initial residual = 0.0537085, Final residual = 7.79215e-08, No Iterations 1
GAMG:  Solving for p, Initial residual = 0.120592, Final residual = 7.58906e-08, No Iterations 18
time step continuity errors : sum local = 9.29742e-14, global = 4.14676e-14, cumulative = 2.57467e-14
PIMPLE: iteration 6
smoothSolver:  Solving for Ux, Initial residual = 0.0170122, Final residual = 2.43941e-08, No Iterations 1
smoothSolver:  Solving for Uy, Initial residual = 0.0174029, Final residual = 2.42162e-08, No Iterations 1
smoothSolver:  Solving for Uz, Initial residual = 0.0192168, Final residual = 2.7207e-08, No Iterations 1
GAMG:  Solving for p, Initial residual = 0.10947, Final residual = 7.14245e-08, No Iterations 18
time step continuity errors : sum local = 8.14231e-14, global = 3.63148e-14, cumulative = 6.20615e-14
PIMPLE: iteration 7
smoothSolver:  Solving for Ux, Initial residual = 0.00455481, Final residual = 5.83072e-09, No Iterations 1
smoothSolver:  Solving for Uy, Initial residual = 0.00544938, Final residual = 6.62331e-09, No Iterations 1
smoothSolver:  Solving for Uz, Initial residual = 0.0057635, Final residual = 7.48387e-09, No Iterations 1
GAMG:  Solving for p, Initial residual = 0.082275, Final residual = 9.96754e-08, No Iterations 17
time step continuity errors : sum local = 1.05542e-13, global = 4.70553e-14, cumulative = 1.09117e-13
PIMPLE: iteration 8
smoothSolver:  Solving for Ux, Initial residual = 0.0136507, Final residual = 1.95709e-08, No Iterations 1
smoothSolver:  Solving for Uy, Initial residual = 0.0135411, Final residual = 1.9358e-08, No Iterations 1
smoothSolver:  Solving for Uz, Initial residual = 0.0142109, Final residual = 2.0984e-08, No Iterations 1
GAMG:  Solving for p, Initial residual = 0.0529562, Final residual = 9.25217e-08, No Iterations 16
time step continuity errors : sum local = 9.28696e-14, global = 4.13721e-14, cumulative = 1.50489e-13
PIMPLE: iteration 9
smoothSolver:  Solving for Ux, Initial residual = 0.0149297, Final residual = 2.14796e-08, No Iterations 1
smoothSolver:  Solving for Uy, Initial residual = 0.0146952, Final residual = 2.10809e-08, No Iterations 1
smoothSolver:  Solving for Uz, Initial residual = 0.015473, Final residual = 2.29606e-08, No Iterations 1
GAMG:  Solving for p, Initial residual = 0.0390511, Final residual = 5.06562e-08, No Iterations 14
time step continuity errors : sum local = 4.95281e-14, global = -2.21571e-14, cumulative = 1.28332e-13
PIMPLE: iteration 10
smoothSolver:  Solving for Ux, Initial residual = 0.0111886, Final residual = 1.60976e-08, No Iterations 1
smoothSolver:  Solving for Uy, Initial residual = 0.0110269, Final residual = 1.57473e-08, No Iterations 1
smoothSolver:  Solving for Uz, Initial residual = 0.0116873, Final residual = 1.72566e-08, No Iterations 1
GAMG:  Solving for p, Initial residual = 0.0309443, Final residual = 8.12103e-08, No Iterations 15
time step continuity errors : sum local = 7.90423e-14, global = -3.52248e-14, cumulative = 9.31069e-14
PIMPLE: iteration 11
smoothSolver:  Solving for Ux, Initial residual = 0.00594103, Final residual = 8.52792e-09, No Iterations 1
smoothSolver:  Solving for Uy, Initial residual = 0.00588929, Final residual = 8.31106e-09, No Iterations 1
smoothSolver:  Solving for Uz, Initial residual = 0.00632086, Final residual = 9.23107e-09, No Iterations 1
GAMG:  Solving for p, Initial residual = 0.0265105, Final residual = 9.9088e-08, No Iterations 15
time step continuity errors : sum local = 9.71343e-14, global = -4.32737e-14, cumulative = 4.98332e-14
PIMPLE: iteration 12
smoothSolver:  Solving for Ux, Initial residual = 0.00165091, Final residual = 2.27252e-09, No Iterations 1
smoothSolver:  Solving for Uy, Initial residual = 0.0017503, Final residual = 2.26663e-09, No Iterations 1
smoothSolver:  Solving for Uz, Initial residual = 0.00187346, Final residual = 2.58454e-09, No Iterations 1
GAMG:  Solving for p, Initial residual = 0.0201231, Final residual = 7.85863e-08, No Iterations 15
time step continuity errors : sum local = 7.7831e-14, global = -3.46659e-14, cumulative = 1.51673e-14
PIMPLE: iteration 13
smoothSolver:  Solving for Ux, Initial residual = 0.00113505, Final residual = 1.57044e-09, No Iterations 1
smoothSolver:  Solving for Uy, Initial residual = 0.0013119, Final residual = 1.74215e-09, No Iterations 1
smoothSolver:  Solving for Uz, Initial residual = 0.00139202, Final residual = 1.93435e-09, No Iterations 1
GAMG:  Solving for p, Initial residual = 0.0138134, Final residual = 9.21888e-08, No Iterations 14
time step continuity errors : sum local = 9.20773e-14, global = -4.09456e-14, cumulative = -2.57784e-14
PIMPLE: iteration 14
smoothSolver:  Solving for Ux, Initial residual = 0.00200515, Final residual = 2.88557e-09, No Iterations 1
smoothSolver:  Solving for Uy, Initial residual = 0.00202783, Final residual = 2.89137e-09, No Iterations 1
smoothSolver:  Solving for Uz, Initial residual = 0.00210187, Final residual = 3.10672e-09, No Iterations 1
GAMG:  Solving for p, Initial residual = 0.00870434, Final residual = 6.6039e-08, No Iterations 13
time step continuity errors : sum local = 6.62879e-14, global = -2.93009e-14, cumulative = -5.50793e-14
PIMPLE: iteration 15
smoothSolver:  Solving for Ux, Initial residual = 0.00186391, Final residual = 2.68733e-09, No Iterations 1
smoothSolver:  Solving for Uy, Initial residual = 0.00185064, Final residual = 2.65493e-09, No Iterations 1
smoothSolver:  Solving for Uz, Initial residual = 0.00194135, Final residual = 2.87416e-09, No Iterations 1
GAMG:  Solving for p, Initial residual = 0.00550868, Final residual = 7.80303e-08, No Iterations 11
time step continuity errors : sum local = 7.8456e-14, global = 3.4939e-14, cumulative = -2.01402e-14
PIMPLE: iteration 16
smoothSolver:  Solving for Ux, Initial residual = 0.00125155, Final residual = 1.80061e-09, No Iterations 1
smoothSolver:  Solving for Uy, Initial residual = 0.00123492, Final residual = 1.76426e-09, No Iterations 1
smoothSolver:  Solving for Uz, Initial residual = 0.00131074, Final residual = 1.93184e-09, No Iterations 1
GAMG:  Solving for p, Initial residual = 0.00443096, Final residual = 5.06888e-08, No Iterations 13
time step continuity errors : sum local = 5.09422e-14, global = 2.26595e-14, cumulative = 2.5193e-15
PIMPLE: iteration 17
smoothSolver:  Solving for Ux, Initial residual = 0.000589673, Final residual = 8.42078e-10, No Iterations 1
smoothSolver:  Solving for Uy, Initial residual = 0.000584262, Final residual = 8.17074e-10, No Iterations 1
smoothSolver:  Solving for Uz, Initial residual = 0.000635114, Final residual = 9.20586e-10, No Iterations 1
GAMG:  Solving for p, Initial residual = 0.00364851, Final residual = 5.15403e-08, No Iterations 13
time step continuity errors : sum local = 5.17255e-14, global = 2.299e-14, cumulative = 2.55093e-14
PIMPLE: iteration 18
smoothSolver:  Solving for Ux, Initial residual = 0.000152237, Final residual = 1.82837e-10, No Iterations 1
smoothSolver:  Solving for Uy, Initial residual = 0.000177978, Final residual = 2.11154e-10, No Iterations 1
smoothSolver:  Solving for Uz, Initial residual = 0.00017491, Final residual = 2.19578e-10, No Iterations 1
GAMG:  Solving for p, Initial residual = 0.00268939, Final residual = 7.59384e-08, No Iterations 12
time step continuity errors : sum local = 7.61002e-14, global = 3.37109e-14, cumulative = 5.92202e-14
PIMPLE: iteration 19
smoothSolver:  Solving for Ux, Initial residual = 0.000191187, Final residual = 2.69232e-10, No Iterations 1
smoothSolver:  Solving for Uy, Initial residual = 0.000210802, Final residual = 2.93225e-10, No Iterations 1
smoothSolver:  Solving for Uz, Initial residual = 0.000224057, Final residual = 3.20404e-10, No Iterations 1
GAMG:  Solving for p, Initial residual = 0.0017945, Final residual = 8.12392e-08, No Iterations 11
time step continuity errors : sum local = 8.13262e-14, global = 3.57588e-14, cumulative = 9.4979e-14
PIMPLE: iteration 20
smoothSolver:  Solving for Ux, Initial residual = 0.000261629, Final residual = 3.7668e-10, No Iterations 1
smoothSolver:  Solving for Uy, Initial residual = 0.000266597, Final residual = 3.82253e-10, No Iterations 1
smoothSolver:  Solving for Uz, Initial residual = 0.000275943, Final residual = 4.06309e-10, No Iterations 1
GAMG:  Solving for p, Initial residual = 0.00115393, Final residual = 6.07555e-08, No Iterations 10
time step continuity errors : sum local = 6.07872e-14, global = 1.36642e-14, cumulative = 1.08643e-13
PIMPLE: iteration 21
smoothSolver:  Solving for Ux, Initial residual = 0.000221939, Final residual = 3.19415e-10, No Iterations 1
smoothSolver:  Solving for Uy, Initial residual = 0.000222447, Final residual = 3.18821e-10, No Iterations 1
smoothSolver:  Solving for Uz, Initial residual = 0.000231992, Final residual = 3.41073e-10, No Iterations 1
GAMG:  Solving for p, Initial residual = 0.000805254, Final residual = 7.85706e-08, No Iterations 9
time step continuity errors : sum local = 7.86002e-14, global = -3.47952e-14, cumulative = 7.3848e-14
PIMPLE: iteration 22
smoothSolver:  Solving for Ux, Initial residual = 0.00013752, Final residual = 1.96964e-10, No Iterations 1
smoothSolver:  Solving for Uy, Initial residual = 0.000137351, Final residual = 1.94977e-10, No Iterations 1
smoothSolver:  Solving for Uz, Initial residual = 0.000144997, Final residual = 2.11369e-10, No Iterations 1
GAMG:  Solving for p, Initial residual = 0.000620316, Final residual = 5.94674e-08, No Iterations 10
time step continuity errors : sum local = 5.94951e-14, global = -2.62682e-14, cumulative = 4.75798e-14
PIMPLE: iteration 23
smoothSolver:  Solving for Ux, Initial residual = 5.81373e-05, Final residual = 8.01093e-11, No Iterations 1
smoothSolver:  Solving for Uy, Initial residual = 5.90661e-05, Final residual = 7.94704e-11, No Iterations 1
smoothSolver:  Solving for Uz, Initial residual = 6.31605e-05, Final residual = 8.89002e-11, No Iterations 1
GAMG:  Solving for p, Initial residual = 0.000484369, Final residual = 5.36966e-08, No Iterations 10
time step continuity errors : sum local = 5.3731e-14, global = -2.36583e-14, cumulative = 2.39214e-14
PIMPLE: iteration 24
smoothSolver:  Solving for Ux, Initial residual = 1.80235e-05, Final residual = 2.0695e-11, No Iterations 1
smoothSolver:  Solving for Uy, Initial residual = 2.3589e-05, Final residual = 2.7395e-11, No Iterations 1
smoothSolver:  Solving for Uz, Initial residual = 2.30563e-05, Final residual = 2.91596e-11, No Iterations 1
GAMG:  Solving for p, Initial residual = 0.000351542, Final residual = 7.31629e-08, No Iterations 9
time step continuity errors : sum local = 7.32214e-14, global = -3.19294e-14, cumulative = -8.00798e-15
PIMPLE: iteration 25
smoothSolver:  Solving for Ux, Initial residual = 2.9911e-05, Final residual = 4.20917e-11, No Iterations 1
smoothSolver:  Solving for Uy, Initial residual = 3.22428e-05, Final residual = 4.52026e-11, No Iterations 1
smoothSolver:  Solving for Uz, Initial residual = 3.33728e-05, Final residual = 4.85275e-11, No Iterations 1
GAMG:  Solving for p, Initial residual = 0.000239091, Final residual = 7.1306e-08, No Iterations 8
time step continuity errors : sum local = 7.13702e-14, global = -3.08078e-14, cumulative = -3.88158e-14
PIMPLE: iteration 26
smoothSolver:  Solving for Ux, Initial residual = 3.37699e-05, Final residual = 4.85151e-11, No Iterations 1
smoothSolver:  Solving for Uy, Initial residual = 3.46998e-05, Final residual = 4.9622e-11, No Iterations 1
smoothSolver:  Solving for Uz, Initial residual = 3.54095e-05, Final residual = 5.23708e-11, No Iterations 1
GAMG:  Solving for p, Initial residual = 0.000156882, Final residual = 6.26542e-08, No Iterations 6
time step continuity errors : sum local = 6.27131e-14, global = 3.20666e-14, cumulative = -6.74923e-15
PIMPLE: iteration 27
smoothSolver:  Solving for Ux, Initial residual = 2.6058e-05, Final residual = 3.74872e-11, No Iterations 1
smoothSolver:  Solving for Uy, Initial residual = 2.63879e-05, Final residual = 3.77368e-11, No Iterations 1
smoothSolver:  Solving for Uz, Initial residual = 2.72744e-05, Final residual = 4.0228e-11, No Iterations 1
GAMG:  Solving for p, Initial residual = 0.000110604, Final residual = 5.33409e-08, No Iterations 7
time step continuity errors : sum local = 5.3391e-14, global = 2.34416e-14, cumulative = 1.66923e-14
PIMPLE: iteration 28
smoothSolver:  Solving for Ux, Initial residual = 1.48662e-05, Final residual = 2.10871e-11, No Iterations 1
smoothSolver:  Solving for Uy, Initial residual = 1.49842e-05, Final residual = 2.10279e-11, No Iterations 1
smoothSolver:  Solving for Uz, Initial residual = 1.58083e-05, Final residual = 2.28789e-11, No Iterations 1
GAMG:  Solving for p, Initial residual = 8.25755e-05, Final residual = 6.67759e-08, No Iterations 7
time step continuity errors : sum local = 6.68371e-14, global = 2.91708e-14, cumulative = 4.58632e-14
PIMPLE: iteration 29
smoothSolver:  Solving for Ux, Initial residual = 5.77187e-06, Final residual = 5.77187e-06, No Iterations 0
smoothSolver:  Solving for Uy, Initial residual = 6.07248e-06, Final residual = 6.07248e-06, No Iterations 0
smoothSolver:  Solving for Uz, Initial residual = 6.20059e-06, Final residual = 6.20059e-06, No Iterations 0
GAMG:  Solving for p, Initial residual = 6.14068e-05, Final residual = 5.57157e-08, No Iterations 7
time step continuity errors : sum local = 5.57654e-14, global = 2.42824e-14, cumulative = 7.01455e-14
PIMPLE: iteration 30
smoothSolver:  Solving for Ux, Initial residual = 8.91754e-06, Final residual = 8.91754e-06, No Iterations 0
smoothSolver:  Solving for Uy, Initial residual = 1.1392e-05, Final residual = 1.56862e-10, No Iterations 1
smoothSolver:  Solving for Uz, Initial residual = 1.20732e-05, Final residual = 1.774e-10, No Iterations 1
GAMG:  Solving for p, Initial residual = 0.228736, Final residual = 5.05937e-08, No Iterations 15
time step continuity errors : sum local = 1.37428e-13, global = -6.13536e-14, cumulative = 8.79192e-15
smoothSolver:  Solving for epsilon, Initial residual = 0.296729, Final residual = 2.4644e-06, No Iterations 1
smoothSolver:  Solving for k, Initial residual = 1, Final residual = 2.53874e-10, No Iterations 2
PIMPLE: converged in 30 iterations
ExecutionTime = 4.97 s  ClockTime = 5 s

Courant Number mean: 6.03384e-06 max: 0.000144121
deltaT = 0.00145287
Time = 0.00265769

PIMPLE: iteration 1
smoothSolver:  Solving for Ux, Initial residual = 0.152121, Final residual = 4.33288e-07, No Iterations 1
smoothSolver:  Solving for Uy, Initial residual = 0.152215, Final residual = 4.32345e-07, No Iterations 1
smoothSolver:  Solving for Uz, Initial residual = 0.1623, Final residual = 4.71102e-07, No Iterations 1
GAMG:  Solving for p, Initial residual = 0.287617, Final residual = 8.5006e-08, No Iterations 19
time step continuity errors : sum local = 9.66255e-14, global = 4.31057e-14, cumulative = 5.18976e-14
PIMPLE: iteration 2
smoothSolver:  Solving for Ux, Initial residual = 0.0673459, Final residual = 1.92283e-07, No Iterations 1
smoothSolver:  Solving for Uy, Initial residual = 0.0676556, Final residual = 1.91958e-07, No Iterations 1
smoothSolver:  Solving for Uz, Initial residual = 0.0730249, Final residual = 2.10287e-07, No Iterations 1
GAMG:  Solving for p, Initial residual = 0.334145, Final residual = 5.69077e-08, No Iterations 20
time step continuity errors : sum local = 5.67203e-14, global = 2.53059e-14, cumulative = 7.72035e-14
PIMPLE: iteration 3
smoothSolver:  Solving for Ux, Initial residual = 0.015991, Final residual = 4.55324e-08, No Iterations 1
smoothSolver:  Solving for Uy, Initial residual = 0.0165828, Final residual = 4.603e-08, No Iterations 1
smoothSolver:  Solving for Uz, Initial residual = 0.0184138, Final residual = 5.07796e-08, No Iterations 1
GAMG:  Solving for p, Initial residual = 0.322698, Final residual = 5.59654e-08, No Iterations 20
time step continuity errors : sum local = 4.45982e-14, global = 1.98974e-14, cumulative = 9.71009e-14
PIMPLE: iteration 4
smoothSolver:  Solving for Ux, Initial residual = 0.0160264, Final residual = 4.48013e-08, No Iterations 1
smoothSolver:  Solving for Uy, Initial residual = 0.0164506, Final residual = 4.53113e-08, No Iterations 1
smoothSolver:  Solving for Uz, Initial residual = 0.0173259, Final residual = 4.96002e-08, No Iterations 1
GAMG:  Solving for p, Initial residual = 0.268813, Final residual = 8.54416e-08, No Iterations 19
time step continuity errors : sum local = 5.18067e-14, global = 2.31104e-14, cumulative = 1.20211e-13
PIMPLE: iteration 5
smoothSolver:  Solving for Ux, Initial residual = 0.0296911, Final residual = 8.41112e-08, No Iterations 1
smoothSolver:  Solving for Uy, Initial residual = 0.0293144, Final residual = 8.26774e-08, No Iterations 1
smoothSolver:  Solving for Uz, Initial residual = 0.0306738, Final residual = 9.06773e-08, No Iterations 1
GAMG:  Solving for p, Initial residual = 0.140727, Final residual = 5.67239e-08, No Iterations 18
time step continuity errors : sum local = 3.60435e-14, global = 1.60726e-14, cumulative = 1.36284e-13
PIMPLE: iteration 6
smoothSolver:  Solving for Ux, Initial residual = 0.0291159, Final residual = 8.26838e-08, No Iterations 1
smoothSolver:  Solving for Uy, Initial residual = 0.0286214, Final residual = 8.10983e-08, No Iterations 1
smoothSolver:  Solving for Uz, Initial residual = 0.0300856, Final residual = 8.87635e-08, No Iterations 1
GAMG:  Solving for p, Initial residual = 0.104077, Final residual = 6.97615e-08, No Iterations 16
time step continuity errors : sum local = 4.45683e-14, global = -1.98783e-14, cumulative = 1.16406e-13
PIMPLE: iteration 7
smoothSolver:  Solving for Ux, Initial residual = 0.0199862, Final residual = 5.68456e-08, No Iterations 1
smoothSolver:  Solving for Uy, Initial residual = 0.0196568, Final residual = 5.57002e-08, No Iterations 1
smoothSolver:  Solving for Uz, Initial residual = 0.0208036, Final residual = 6.10216e-08, No Iterations 1
GAMG:  Solving for p, Initial residual = 0.0987462, Final residual = 9.27676e-08, No Iterations 17
time step continuity errors : sum local = 5.64926e-14, global = -2.51946e-14, cumulative = 9.12111e-14
PIMPLE: iteration 8
smoothSolver:  Solving for Ux, Initial residual = 0.00911396, Final residual = 2.59736e-08, No Iterations 1
smoothSolver:  Solving for Uy, Initial residual = 0.00901339, Final residual = 2.54535e-08, No Iterations 1
smoothSolver:  Solving for Uz, Initial residual = 0.00969175, Final residual = 2.80954e-08, No Iterations 1
GAMG:  Solving for p, Initial residual = 0.092148, Final residual = 5.0441e-08, No Iterations 18
time step continuity errors : sum local = 2.8741e-14, global = -1.28199e-14, cumulative = 7.83912e-14
PIMPLE: iteration 9
smoothSolver:  Solving for Ux, Initial residual = 0.00149037, Final residual = 3.79841e-09, No Iterations 1
smoothSolver:  Solving for Uy, Initial residual = 0.00183931, Final residual = 4.38187e-09, No Iterations 1
smoothSolver:  Solving for Uz, Initial residual = 0.0017914, Final residual = 4.59652e-09, No Iterations 1
GAMG:  Solving for p, Initial residual = 0.0719451, Final residual = 7.80425e-08, No Iterations 17
time step continuity errors : sum local = 4.18485e-14, global = -1.86605e-14, cumulative = 5.97308e-14
PIMPLE: iteration 10
smoothSolver:  Solving for Ux, Initial residual = 0.0033304, Final residual = 9.30576e-09, No Iterations 1
smoothSolver:  Solving for Uy, Initial residual = 0.00346152, Final residual = 9.48249e-09, No Iterations 1
smoothSolver:  Solving for Uz, Initial residual = 0.00360153, Final residual = 1.0437e-08, No Iterations 1
GAMG:  Solving for p, Initial residual = 0.0489313, Final residual = 8.42889e-08, No Iterations 16
time step continuity errors : sum local = 4.34479e-14, global = -1.93603e-14, cumulative = 4.03705e-14
PIMPLE: iteration 11
smoothSolver:  Solving for Ux, Initial residual = 0.0043255, Final residual = 1.22402e-08, No Iterations 1
smoothSolver:  Solving for Uy, Initial residual = 0.0043034, Final residual = 1.20871e-08, No Iterations 1
smoothSolver:  Solving for Uz, Initial residual = 0.00448094, Final residual = 1.31973e-08, No Iterations 1
GAMG:  Solving for p, Initial residual = 0.0295264, Final residual = 8.05761e-08, No Iterations 14
time step continuity errors : sum local = 4.09037e-14, global = -1.80013e-14, cumulative = 2.23691e-14
PIMPLE: iteration 12
smoothSolver:  Solving for Ux, Initial residual = 0.00353912, Final residual = 1.00454e-08, No Iterations 1
smoothSolver:  Solving for Uy, Initial residual = 0.00349408, Final residual = 9.8444e-09, No Iterations 1
smoothSolver:  Solving for Uz, Initial residual = 0.00366284, Final residual = 1.07826e-08, No Iterations 1
GAMG:  Solving for p, Initial residual = 0.0198455, Final residual = 8.77942e-08, No Iterations 14
time step continuity errors : sum local = 4.47528e-14, global = 1.99408e-14, cumulative = 4.23099e-14
PIMPLE: iteration 13
smoothSolver:  Solving for Ux, Initial residual = 0.00212324, Final residual = 6.03879e-09, No Iterations 1
smoothSolver:  Solving for Uy, Initial residual = 0.00208831, Final residual = 5.89134e-09, No Iterations 1
smoothSolver:  Solving for Uz, Initial residual = 0.0022189, Final residual = 6.49178e-09, No Iterations 1
GAMG:  Solving for p, Initial residual = 0.0173418, Final residual = 6.48928e-08, No Iterations 15
time step continuity errors : sum local = 3.32107e-14, global = 1.47993e-14, cumulative = 5.71092e-14
PIMPLE: iteration 14
smoothSolver:  Solving for Ux, Initial residual = 0.000822073, Final residual = 2.33352e-09, No Iterations 1
smoothSolver:  Solving for Uy, Initial residual = 0.000816841, Final residual = 2.27244e-09, No Iterations 1
smoothSolver:  Solving for Uz, Initial residual = 0.000893674, Final residual = 2.55915e-09, No Iterations 1
GAMG:  Solving for p, Initial residual = 0.014008, Final residual = 5.75812e-08, No Iterations 15
time step continuity errors : sum local = 2.97579e-14, global = 1.32571e-14, cumulative = 7.03664e-14
PIMPLE: iteration 15
smoothSolver:  Solving for Ux, Initial residual = 0.000203132, Final residual = 4.94252e-10, No Iterations 1
smoothSolver:  Solving for Uy, Initial residual = 0.000273957, Final residual = 6.49333e-10, No Iterations 1
smoothSolver:  Solving for Uz, Initial residual = 0.000282119, Final residual = 7.55526e-10, No Iterations 1
GAMG:  Solving for p, Initial residual = 0.00986372, Final residual = 7.56099e-08, No Iterations 14
time step continuity errors : sum local = 3.93617e-14, global = 1.751e-14, cumulative = 8.78764e-14
PIMPLE: iteration 16
smoothSolver:  Solving for Ux, Initial residual = 0.000488165, Final residual = 1.36147e-09, No Iterations 1
smoothSolver:  Solving for Uy, Initial residual = 0.000507332, Final residual = 1.42166e-09, No Iterations 1
smoothSolver:  Solving for Uz, Initial residual = 0.000526346, Final residual = 1.54105e-09, No Iterations 1
GAMG:  Solving for p, Initial residual = 0.00622219, Final residual = 6.82021e-08, No Iterations 13
time step continuity errors : sum local = 3.56431e-14, global = 1.57901e-14, cumulative = 1.03667e-13
PIMPLE: iteration 17
smoothSolver:  Solving for Ux, Initial residual = 0.000543036, Final residual = 1.53165e-09, No Iterations 1
smoothSolver:  Solving for Uy, Initial residual = 0.000544615, Final residual = 1.54264e-09, No Iterations 1
smoothSolver:  Solving for Uz, Initial residual = 0.000563858, Final residual = 1.65732e-09, No Iterations 1
GAMG:  Solving for p, Initial residual = 0.00391005, Final residual = 6.17206e-08, No Iterations 11
time step continuity errors : sum local = 3.22869e-14, global = -1.45453e-14, cumulative = 8.91212e-14
PIMPLE: iteration 18
smoothSolver:  Solving for Ux, Initial residual = 0.00041115, Final residual = 1.16326e-09, No Iterations 1
smoothSolver:  Solving for Uy, Initial residual = 0.000409233, Final residual = 1.15662e-09, No Iterations 1
smoothSolver:  Solving for Uz, Initial residual = 0.000426119, Final residual = 1.24843e-09, No Iterations 1
GAMG:  Solving for p, Initial residual = 0.00288319, Final residual = 5.85877e-08, No Iterations 12
time step continuity errors : sum local = 3.06236e-14, global = -1.36168e-14, cumulative = 7.55045e-14
PIMPLE: iteration 19
smoothSolver:  Solving for Ux, Initial residual = 0.000225613, Final residual = 6.38354e-10, No Iterations 1
smoothSolver:  Solving for Uy, Initial residual = 0.000224048, Final residual = 6.33159e-10, No Iterations 1
smoothSolver:  Solving for Uz, Initial residual = 0.000237081, Final residual = 6.87251e-10, No Iterations 1
GAMG:  Solving for p, Initial residual = 0.00237659, Final residual = 7.041e-08, No Iterations 12
time step continuity errors : sum local = 3.67493e-14, global = -1.63165e-14, cumulative = 5.9188e-14
PIMPLE: iteration 20
smoothSolver:  Solving for Ux, Initial residual = 7.53995e-05, Final residual = 2.02937e-10, No Iterations 1
smoothSolver:  Solving for Uy, Initial residual = 7.81639e-05, Final residual = 2.09805e-10, No Iterations 1
smoothSolver:  Solving for Uz, Initial residual = 8.23942e-05, Final residual = 2.30428e-10, No Iterations 1
GAMG:  Solving for p, Initial residual = 0.00183363, Final residual = 5.69151e-08, No Iterations 12
time step continuity errors : sum local = 2.96653e-14, global = -1.31556e-14, cumulative = 4.60324e-14
PIMPLE: iteration 21
smoothSolver:  Solving for Ux, Initial residual = 3.82468e-05, Final residual = 9.88072e-11, No Iterations 1
smoothSolver:  Solving for Uy, Initial residual = 4.76003e-05, Final residual = 1.21703e-10, No Iterations 1
smoothSolver:  Solving for Uz, Initial residual = 5.15328e-05, Final residual = 1.48301e-10, No Iterations 1
GAMG:  Solving for p, Initial residual = 0.00128127, Final residual = 6.87299e-08, No Iterations 11
time step continuity errors : sum local = 3.57904e-14, global = -1.5777e-14, cumulative = 3.02554e-14
PIMPLE: iteration 22
smoothSolver:  Solving for Ux, Initial residual = 6.96261e-05, Final residual = 1.94488e-10, No Iterations 1
smoothSolver:  Solving for Uy, Initial residual = 7.24101e-05, Final residual = 2.05165e-10, No Iterations 1
smoothSolver:  Solving for Uz, Initial residual = 7.44935e-05, Final residual = 2.20651e-10, No Iterations 1
GAMG:  Solving for p, Initial residual = 0.000829341, Final residual = 5.24393e-08, No Iterations 10
time step continuity errors : sum local = 2.72955e-14, global = -1.17637e-14, cumulative = 1.84917e-14
PIMPLE: iteration 23
smoothSolver:  Solving for Ux, Initial residual = 6.75625e-05, Final residual = 1.9046e-10, No Iterations 1
smoothSolver:  Solving for Uy, Initial residual = 6.8428e-05, Final residual = 1.95168e-10, No Iterations 1
smoothSolver:  Solving for Uz, Initial residual = 7.0314e-05, Final residual = 2.0766e-10, No Iterations 1
GAMG:  Solving for p, Initial residual = 0.000542602, Final residual = 6.11914e-08, No Iterations 8
time step continuity errors : sum local = 3.18493e-14, global = 1.41966e-14, cumulative = 3.26883e-14
PIMPLE: iteration 24
smoothSolver:  Solving for Ux, Initial residual = 4.68585e-05, Final residual = 1.32334e-10, No Iterations 1
smoothSolver:  Solving for Uy, Initial residual = 4.70577e-05, Final residual = 1.33888e-10, No Iterations 1
smoothSolver:  Solving for Uz, Initial residual = 4.87405e-05, Final residual = 1.43231e-10, No Iterations 1
GAMG:  Solving for p, Initial residual = 0.000403855, Final residual = 7.24996e-08, No Iterations 9
time step continuity errors : sum local = 3.77403e-14, global = 1.66365e-14, cumulative = 4.93248e-14
PIMPLE: iteration 25
smoothSolver:  Solving for Ux, Initial residual = 2.33264e-05, Final residual = 6.51056e-11, No Iterations 1
smoothSolver:  Solving for Uy, Initial residual = 2.33753e-05, Final residual = 6.5467e-11, No Iterations 1
smoothSolver:  Solving for Uz, Initial residual = 2.47172e-05, Final residual = 7.11735e-11, No Iterations 1
GAMG:  Solving for p, Initial residual = 0.000314154, Final residual = 7.5638e-08, No Iterations 9
time step continuity errors : sum local = 3.93816e-14, global = 1.72872e-14, cumulative = 6.6612e-14
PIMPLE: iteration 26
smoothSolver:  Solving for Ux, Initial residual = 7.22007e-06, Final residual = 7.22007e-06, No Iterations 0
smoothSolver:  Solving for Uy, Initial residual = 8.26073e-06, Final residual = 8.26073e-06, No Iterations 0
smoothSolver:  Solving for Uz, Initial residual = 8.09369e-06, Final residual = 8.09369e-06, No Iterations 0
GAMG:  Solving for p, Initial residual = 0.000231882, Final residual = 5.59141e-08, No Iterations 9
time step continuity errors : sum local = 2.91169e-14, global = 1.27329e-14, cumulative = 7.93449e-14
PIMPLE: iteration 27
smoothSolver:  Solving for Ux, Initial residual = 2.23957e-05, Final residual = 6.71446e-10, No Iterations 1
smoothSolver:  Solving for Uy, Initial residual = 2.53606e-05, Final residual = 7.61624e-10, No Iterations 1
smoothSolver:  Solving for Uz, Initial residual = 2.7887e-05, Final residual = 9.23013e-10, No Iterations 1
GAMG:  Solving for p, Initial residual = 0.685538, Final residual = 7.89207e-08, No Iterations 16
time step continuity errors : sum local = 8.18553e-14, global = -3.65323e-14, cumulative = 4.28126e-14
smoothSolver:  Solving for epsilon, Initial residual = 0.357552, Final residual = 4.22101e-06, No Iterations 1
smoothSolver:  Solving for k, Initial residual = 0.87432, Final residual = 1.03513e-09, No Iterations 2
PIMPLE: converged in 27 iterations
ExecutionTime = 9.42 s  ClockTime = 10 s

Courant Number mean: 7.30836e-06 max: 0.00017265
deltaT = 0.00173826
Time = 0.00439595

PIMPLE: iteration 1
smoothSolver:  Solving for Ux, Initial residual = 0.00293872, Final residual = 1.07361e-08, No Iterations 1
smoothSolver:  Solving for Uy, Initial residual = 0.00392009, Final residual = 1.25236e-08, No Iterations 1
smoothSolver:  Solving for Uz, Initial residual = 0.00379798, Final residual = 1.30405e-08, No Iterations 1
GAMG:  Solving for p, Initial residual = 0.723943, Final residual = 6.40787e-08, No Iterations 17
time step continuity errors : sum local = 2.92298e-14, global = 1.3053e-14, cumulative = 5.58656e-14
PIMPLE: iteration 2
smoothSolver:  Solving for Ux, Initial residual = 0.00504569, Final residual = 1.79511e-08, No Iterations 1
smoothSolver:  Solving for Uy, Initial residual = 0.0064574, Final residual = 2.11358e-08, No Iterations 1
smoothSolver:  Solving for Uz, Initial residual = 0.00622608, Final residual = 2.1233e-08, No Iterations 1
GAMG:  Solving for p, Initial residual = 0.381599, Final residual = 5.45667e-08, No Iterations 16
time step continuity errors : sum local = 2.92495e-14, global = 1.30664e-14, cumulative = 6.8932e-14
PIMPLE: iteration 3
smoothSolver:  Solving for Ux, Initial residual = 0.00506129, Final residual = 1.76496e-08, No Iterations 1
smoothSolver:  Solving for Uy, Initial residual = 0.00648308, Final residual = 2.10789e-08, No Iterations 1
smoothSolver:  Solving for Uz, Initial residual = 0.00618706, Final residual = 2.05498e-08, No Iterations 1
GAMG:  Solving for p, Initial residual = 0.213809, Final residual = 9.71678e-08, No Iterations 14
time step continuity errors : sum local = 5.58936e-14, global = 2.49258e-14, cumulative = 9.38579e-14
PIMPLE: iteration 4
smoothSolver:  Solving for Ux, Initial residual = 0.00404015, Final residual = 1.34633e-08, No Iterations 1
smoothSolver:  Solving for Uy, Initial residual = 0.00513667, Final residual = 1.63179e-08, No Iterations 1
smoothSolver:  Solving for Uz, Initial residual = 0.00491735, Final residual = 1.55068e-08, No Iterations 1
GAMG:  Solving for p, Initial residual = 0.131799, Final residual = 6.78168e-08, No Iterations 15
time step continuity errors : sum local = 4.00579e-14, global = -1.79539e-14, cumulative = 7.59039e-14
PIMPLE: iteration 5
smoothSolver:  Solving for Ux, Initial residual = 0.0027596, Final residual = 8.4988e-09, No Iterations 1
smoothSolver:  Solving for Uy, Initial residual = 0.00345473, Final residual = 1.0463e-08, No Iterations 1
smoothSolver:  Solving for Uz, Initial residual = 0.00334725, Final residual = 9.63915e-09, No Iterations 1
GAMG:  Solving for p, Initial residual = 0.0962883, Final residual = 7.7465e-08, No Iterations 15
time step continuity errors : sum local = 4.5947e-14, global = -2.05656e-14, cumulative = 5.53384e-14
PIMPLE: iteration 6
smoothSolver:  Solving for Ux, Initial residual = 0.00167642, Final residual = 4.5019e-09, No Iterations 1
smoothSolver:  Solving for Uy, Initial residual = 0.00201932, Final residual = 5.57358e-09, No Iterations 1
smoothSolver:  Solving for Uz, Initial residual = 0.00198662, Final residual = 4.98513e-09, No Iterations 1
GAMG:  Solving for p, Initial residual = 0.0781098, Final residual = 6.46274e-08, No Iterations 15
time step continuity errors : sum local = 3.81498e-14, global = -1.70706e-14, cumulative = 3.82678e-14
PIMPLE: iteration 7
smoothSolver:  Solving for Ux, Initial residual = 0.00101093, Final residual = 2.19947e-09, No Iterations 1
smoothSolver:  Solving for Uy, Initial residual = 0.00111714, Final residual = 2.66127e-09, No Iterations 1
smoothSolver:  Solving for Uz, Initial residual = 0.00110301, Final residual = 2.18055e-09, No Iterations 1
GAMG:  Solving for p, Initial residual = 0.0627523, Final residual = 8.78743e-08, No Iterations 14
time step continuity errors : sum local = 5.14763e-14, global = -2.30672e-14, cumulative = 1.52006e-14
PIMPLE: iteration 8
smoothSolver:  Solving for Ux, Initial residual = 0.000762914, Final residual = 1.7657e-09, No Iterations 1
smoothSolver:  Solving for Uy, Initial residual = 0.000811492, Final residual = 2.08429e-09, No Iterations 1
smoothSolver:  Solving for Uz, Initial residual = 0.000833972, Final residual = 1.79232e-09, No Iterations 1
GAMG:  Solving for p, Initial residual = 0.0478495, Final residual = 9.53515e-08, No Iterations 13
time step continuity errors : sum local = 5.54618e-14, global = -2.49228e-14, cumulative = -9.72219e-15
PIMPLE: iteration 9
smoothSolver:  Solving for Ux, Initial residual = 0.000636447, Final residual = 1.61255e-09, No Iterations 1
smoothSolver:  Solving for Uy, Initial residual = 0.000687765, Final residual = 1.9217e-09, No Iterations 1
smoothSolver:  Solving for Uz, Initial residual = 0.000669378, Final residual = 1.77892e-09, No Iterations 1
GAMG:  Solving for p, Initial residual = 0.0347522, Final residual = 7.67306e-08, No Iterations 12
time step continuity errors : sum local = 4.4418e-14, global = -2.01458e-14, cumulative = -2.9868e-14
PIMPLE: iteration 10
smoothSolver:  Solving for Ux, Initial residual = 0.000469879, Final residual = 1.20549e-09, No Iterations 1
smoothSolver:  Solving for Uy, Initial residual = 0.00053818, Final residual = 1.53526e-09, No Iterations 1
smoothSolver:  Solving for Uz, Initial residual = 0.000490241, Final residual = 1.41473e-09, No Iterations 1
GAMG:  Solving for p, Initial residual = 0.0244759, Final residual = 5.63675e-08, No Iterations 11
time step continuity errors : sum local = 3.25405e-14, global = 1.47012e-14, cumulative = -1.51668e-14
PIMPLE: iteration 11
smoothSolver:  Solving for Ux, Initial residual = 0.000315884, Final residual = 7.45884e-10, No Iterations 1
smoothSolver:  Solving for Uy, Initial residual = 0.000379956, Final residual = 1.03471e-09, No Iterations 1
smoothSolver:  Solving for Uz, Initial residual = 0.000329889, Final residual = 9.10165e-10, No Iterations 1
GAMG:  Solving for p, Initial residual = 0.0177465, Final residual = 9.23964e-08, No Iterations 11
time step continuity errors : sum local = 5.32697e-14, global = 2.40767e-14, cumulative = 8.90993e-15
PIMPLE: iteration 12
smoothSolver:  Solving for Ux, Initial residual = 0.00020883, Final residual = 4.01069e-10, No Iterations 1
smoothSolver:  Solving for Uy, Initial residual = 0.000254648, Final residual = 6.12658e-10, No Iterations 1
smoothSolver:  Solving for Uz, Initial residual = 0.000217467, Final residual = 5.01528e-10, No Iterations 1
GAMG:  Solving for p, Initial residual = 0.0128077, Final residual = 8.16487e-08, No Iterations 11
time step continuity errors : sum local = 4.70514e-14, global = 2.12585e-14, cumulative = 3.01684e-14
PIMPLE: iteration 13
smoothSolver:  Solving for Ux, Initial residual = 0.00015144, Final residual = 2.71677e-10, No Iterations 1
smoothSolver:  Solving for Uy, Initial residual = 0.00017913, Final residual = 4.0587e-10, No Iterations 1
smoothSolver:  Solving for Uz, Initial residual = 0.000154135, Final residual = 3.344e-10, No Iterations 1
GAMG:  Solving for p, Initial residual = 0.00911054, Final residual = 5.14854e-08, No Iterations 11
time step continuity errors : sum local = 2.96659e-14, global = 1.33931e-14, cumulative = 4.35616e-14
PIMPLE: iteration 14
smoothSolver:  Solving for Ux, Initial residual = 0.000118644, Final residual = 2.58799e-10, No Iterations 1
smoothSolver:  Solving for Uy, Initial residual = 0.000135701, Final residual = 3.47003e-10, No Iterations 1
smoothSolver:  Solving for Uz, Initial residual = 0.00011848, Final residual = 3.06075e-10, No Iterations 1
GAMG:  Solving for p, Initial residual = 0.00646869, Final residual = 8.49502e-08, No Iterations 9
time step continuity errors : sum local = 4.89468e-14, global = 2.24224e-14, cumulative = 6.5984e-14
PIMPLE: iteration 15
smoothSolver:  Solving for Ux, Initial residual = 9.05451e-05, Final residual = 2.25917e-10, No Iterations 1
smoothSolver:  Solving for Uy, Initial residual = 0.000103172, Final residual = 2.85971e-10, No Iterations 1
smoothSolver:  Solving for Uz, Initial residual = 8.97823e-05, Final residual = 2.60463e-10, No Iterations 1
GAMG:  Solving for p, Initial residual = 0.00469283, Final residual = 5.03915e-08, No Iterations 8
time step continuity errors : sum local = 2.90329e-14, global = 1.28827e-14, cumulative = 7.88667e-14
PIMPLE: iteration 16
smoothSolver:  Solving for Ux, Initial residual = 6.63002e-05, Final residual = 1.67467e-10, No Iterations 1
smoothSolver:  Solving for Uy, Initial residual = 7.31935e-05, Final residual = 2.07419e-10, No Iterations 1
smoothSolver:  Solving for Uz, Initial residual = 6.62022e-05, Final residual = 1.93006e-10, No Iterations 1
GAMG:  Solving for p, Initial residual = 0.00340141, Final residual = 5.5353e-08, No Iterations 9
time step continuity errors : sum local = 3.18877e-14, global = -1.51927e-14, cumulative = 6.36741e-14
PIMPLE: iteration 17
smoothSolver:  Solving for Ux, Initial residual = 4.53019e-05, Final residual = 1.06205e-10, No Iterations 1
smoothSolver:  Solving for Uy, Initial residual = 4.95144e-05, Final residual = 1.32062e-10, No Iterations 1
smoothSolver:  Solving for Uz, Initial residual = 4.62193e-05, Final residual = 1.26139e-10, No Iterations 1
GAMG:  Solving for p, Initial residual = 0.00241716, Final residual = 6.19801e-08, No Iterations 9
time step continuity errors : sum local = 3.57e-14, global = -1.67225e-14, cumulative = 4.69516e-14
PIMPLE: iteration 18
smoothSolver:  Solving for Ux, Initial residual = 2.93661e-05, Final residual = 5.85012e-11, No Iterations 1
smoothSolver:  Solving for Uy, Initial residual = 3.30752e-05, Final residual = 8.02827e-11, No Iterations 1
smoothSolver:  Solving for Uz, Initial residual = 2.99866e-05, Final residual = 7.40472e-11, No Iterations 1
GAMG:  Solving for p, Initial residual = 0.00170646, Final residual = 9.50258e-08, No Iterations 8
time step continuity errors : sum local = 5.47254e-14, global = -2.62194e-14, cumulative = 2.07322e-14
PIMPLE: iteration 19
smoothSolver:  Solving for Ux, Initial residual = 2.04306e-05, Final residual = 3.51155e-11, No Iterations 1
smoothSolver:  Solving for Uy, Initial residual = 2.32049e-05, Final residual = 5.3618e-11, No Iterations 1
smoothSolver:  Solving for Uz, Initial residual = 1.97959e-05, Final residual = 4.59992e-11, No Iterations 1
GAMG:  Solving for p, Initial residual = 0.00122464, Final residual = 5.79619e-08, No Iterations 8
time step continuity errors : sum local = 3.33757e-14, global = -1.58928e-14, cumulative = 4.83947e-15
PIMPLE: iteration 20
smoothSolver:  Solving for Ux, Initial residual = 1.56809e-05, Final residual = 3.0302e-11, No Iterations 1
smoothSolver:  Solving for Uy, Initial residual = 1.75957e-05, Final residual = 4.34545e-11, No Iterations 1
smoothSolver:  Solving for Uz, Initial residual = 1.52155e-05, Final residual = 3.83816e-11, No Iterations 1
GAMG:  Solving for p, Initial residual = 0.000875554, Final residual = 9.53272e-08, No Iterations 6
time step continuity errors : sum local = 5.48859e-14, global = -2.88392e-14, cumulative = -2.39997e-14
PIMPLE: iteration 21
smoothSolver:  Solving for Ux, Initial residual = 1.18018e-05, Final residual = 2.55553e-11, No Iterations 1
smoothSolver:  Solving for Uy, Initial residual = 1.33433e-05, Final residual = 3.50113e-11, No Iterations 1
smoothSolver:  Solving for Uz, Initial residual = 1.14588e-05, Final residual = 3.07487e-11, No Iterations 1
GAMG:  Solving for p, Initial residual = 0.00062273, Final residual = 6.49909e-08, No Iterations 5
time step continuity errors : sum local = 3.74168e-14, global = -2.06655e-14, cumulative = -4.46652e-14
PIMPLE: iteration 22
smoothSolver:  Solving for Ux, Initial residual = 8.30541e-06, Final residual = 8.30541e-06, No Iterations 0
smoothSolver:  Solving for Uy, Initial residual = 9.68785e-06, Final residual = 9.68785e-06, No Iterations 0
smoothSolver:  Solving for Uz, Initial residual = 8.02086e-06, Final residual = 8.02086e-06, No Iterations 0
GAMG:  Solving for p, Initial residual = 0.00044364, Final residual = 4.52288e-08, No Iterations 6
time step continuity errors : sum local = 2.60382e-14, global = 1.09086e-14, cumulative = -3.37566e-14
PIMPLE: iteration 23
smoothSolver:  Solving for Ux, Initial residual = 1.88287e-05, Final residual = 4.35956e-10, No Iterations 1
smoothSolver:  Solving for Uy, Initial residual = 2.26436e-05, Final residual = 6.21939e-10, No Iterations 1
smoothSolver:  Solving for Uz, Initial residual = 1.7811e-05, Final residual = 5.2419e-10, No Iterations 1
GAMG:  Solving for p, Initial residual = 0.737856, Final residual = 8.65883e-08, No Iterations 16
time step continuity errors : sum local = 9.59931e-14, global = -4.28326e-14, cumulative = -7.65892e-14
smoothSolver:  Solving for epsilon, Initial residual = 0.398373, Final residual = 6.59793e-06, No Iterations 1
smoothSolver:  Solving for k, Initial residual = 0.744486, Final residual = 1.75183e-09, No Iterations 2
PIMPLE: converged in 23 iterations
ExecutionTime = 12.7 s  ClockTime = 13 s

Courant Number mean: 8.78526e-06 max: 0.000205362
deltaT = 0.00207835
Time = 0.00647429

PIMPLE: iteration 1
smoothSolver:  Solving for Ux, Initial residual = 0.00204027, Final residual = 1.03268e-08, No Iterations 1
smoothSolver:  Solving for Uy, Initial residual = 0.0026238, Final residual = 1.232e-08, No Iterations 1
smoothSolver:  Solving for Uz, Initial residual = 0.00267916, Final residual = 1.29253e-08, No Iterations 1
GAMG:  Solving for p, Initial residual = 0.776276, Final residual = 5.94919e-08, No Iterations 17
time step continuity errors : sum local = 2.91469e-14, global = 1.30181e-14, cumulative = -6.35711e-14
PIMPLE: iteration 2
smoothSolver:  Solving for Ux, Initial residual = 0.0041844, Final residual = 2.07041e-08, No Iterations 1
smoothSolver:  Solving for Uy, Initial residual = 0.00530492, Final residual = 2.47244e-08, No Iterations 1
smoothSolver:  Solving for Uz, Initial residual = 0.0051396, Final residual = 2.42798e-08, No Iterations 1
GAMG:  Solving for p, Initial residual = 0.408367, Final residual = 5.05735e-08, No Iterations 16
time step continuity errors : sum local = 2.96728e-14, global = 1.32574e-14, cumulative = -5.03137e-14
PIMPLE: iteration 3
smoothSolver:  Solving for Ux, Initial residual = 0.00437985, Final residual = 2.1097e-08, No Iterations 1
smoothSolver:  Solving for Uy, Initial residual = 0.00552825, Final residual = 2.5286e-08, No Iterations 1
smoothSolver:  Solving for Uz, Initial residual = 0.00530012, Final residual = 2.42786e-08, No Iterations 1
GAMG:  Solving for p, Initial residual = 0.22984, Final residual = 9.99497e-08, No Iterations 14
time step continuity errors : sum local = 6.35894e-14, global = 2.78154e-14, cumulative = -2.24983e-14
PIMPLE: iteration 4
smoothSolver:  Solving for Ux, Initial residual = 0.00356081, Final residual = 1.6398e-08, No Iterations 1
smoothSolver:  Solving for Uy, Initial residual = 0.004468, Final residual = 1.97652e-08, No Iterations 1
smoothSolver:  Solving for Uz, Initial residual = 0.00429729, Final residual = 1.85918e-08, No Iterations 1
GAMG:  Solving for p, Initial residual = 0.139223, Final residual = 7.8318e-08, No Iterations 15
time step continuity errors : sum local = 5.15053e-14, global = -2.30774e-14, cumulative = -4.55758e-14
PIMPLE: iteration 5
smoothSolver:  Solving for Ux, Initial residual = 0.00247287, Final residual = 1.05e-08, No Iterations 1
smoothSolver:  Solving for Uy, Initial residual = 0.0030621, Final residual = 1.27912e-08, No Iterations 1
smoothSolver:  Solving for Uz, Initial residual = 0.00297672, Final residual = 1.17442e-08, No Iterations 1
GAMG:  Solving for p, Initial residual = 0.0964129, Final residual = 7.82396e-08, No Iterations 15
time step continuity errors : sum local = 5.19856e-14, global = -2.32723e-14, cumulative = -6.88481e-14
PIMPLE: iteration 6
smoothSolver:  Solving for Ux, Initial residual = 0.00154239, Final residual = 5.62956e-09, No Iterations 1
smoothSolver:  Solving for Uy, Initial residual = 0.00184163, Final residual = 6.94042e-09, No Iterations 1
smoothSolver:  Solving for Uz, Initial residual = 0.00181128, Final residual = 6.14396e-09, No Iterations 1
GAMG:  Solving for p, Initial residual = 0.0755584, Final residual = 6.13309e-08, No Iterations 15
time step continuity errors : sum local = 4.07319e-14, global = -1.82306e-14, cumulative = -8.70787e-14
PIMPLE: iteration 7
smoothSolver:  Solving for Ux, Initial residual = 0.00095434, Final residual = 2.79433e-09, No Iterations 1
smoothSolver:  Solving for Uy, Initial residual = 0.00105805, Final residual = 3.42333e-09, No Iterations 1
smoothSolver:  Solving for Uz, Initial residual = 0.00103356, Final residual = 2.6723e-09, No Iterations 1
GAMG:  Solving for p, Initial residual = 0.060341, Final residual = 7.96985e-08, No Iterations 14
time step continuity errors : sum local = 5.26653e-14, global = -2.36101e-14, cumulative = -1.10689e-13
PIMPLE: iteration 8
smoothSolver:  Solving for Ux, Initial residual = 0.000704455, Final residual = 2.16529e-09, No Iterations 1
smoothSolver:  Solving for Uy, Initial residual = 0.000747612, Final residual = 2.57383e-09, No Iterations 1
smoothSolver:  Solving for Uz, Initial residual = 0.000761204, Final residual = 2.06955e-09, No Iterations 1
GAMG:  Solving for p, Initial residual = 0.0464266, Final residual = 8.23232e-08, No Iterations 13
time step continuity errors : sum local = 5.41126e-14, global = -2.43405e-14, cumulative = -1.35029e-13
PIMPLE: iteration 9
smoothSolver:  Solving for Ux, Initial residual = 0.000574167, Final residual = 1.93431e-09, No Iterations 1
smoothSolver:  Solving for Uy, Initial residual = 0.000606413, Final residual = 2.28318e-09, No Iterations 1
smoothSolver:  Solving for Uz, Initial residual = 0.000593831, Final residual = 1.99265e-09, No Iterations 1
GAMG:  Solving for p, Initial residual = 0.0339651, Final residual = 5.85933e-08, No Iterations 12
time step continuity errors : sum local = 3.83631e-14, global = -1.75724e-14, cumulative = -1.52602e-13
PIMPLE: iteration 10
smoothSolver:  Solving for Ux, Initial residual = 0.000421228, Final residual = 1.42605e-09, No Iterations 1
smoothSolver:  Solving for Uy, Initial residual = 0.000466246, Final residual = 1.77365e-09, No Iterations 1
smoothSolver:  Solving for Uz, Initial residual = 0.000426689, Final residual = 1.583e-09, No Iterations 1
GAMG:  Solving for p, Initial residual = 0.0241537, Final residual = 5.77351e-08, No Iterations 11
time step continuity errors : sum local = 3.77036e-14, global = 1.6998e-14, cumulative = -1.35604e-13
PIMPLE: iteration 11
smoothSolver:  Solving for Ux, Initial residual = 0.00028661, Final residual = 8.75591e-10, No Iterations 1
smoothSolver:  Solving for Uy, Initial residual = 0.000329389, Final residual = 1.1843e-09, No Iterations 1
smoothSolver:  Solving for Uz, Initial residual = 0.000284048, Final residual = 1.02337e-09, No Iterations 1
GAMG:  Solving for p, Initial residual = 0.0175302, Final residual = 8.07857e-08, No Iterations 11
time step continuity errors : sum local = 5.26852e-14, global = 2.37914e-14, cumulative = -1.11812e-13
PIMPLE: iteration 12
smoothSolver:  Solving for Ux, Initial residual = 0.000193365, Final residual = 4.7408e-10, No Iterations 1
smoothSolver:  Solving for Uy, Initial residual = 0.000225977, Final residual = 7.04476e-10, No Iterations 1
smoothSolver:  Solving for Uz, Initial residual = 0.000189396, Final residual = 5.68742e-10, No Iterations 1
GAMG:  Solving for p, Initial residual = 0.0125977, Final residual = 6.75266e-08, No Iterations 11
time step continuity errors : sum local = 4.40083e-14, global = 1.98746e-14, cumulative = -9.19376e-14
PIMPLE: iteration 13
smoothSolver:  Solving for Ux, Initial residual = 0.000142803, Final residual = 3.41796e-10, No Iterations 1
smoothSolver:  Solving for Uy, Initial residual = 0.000164046, Final residual = 5.0309e-10, No Iterations 1
smoothSolver:  Solving for Uz, Initial residual = 0.000140853, Final residual = 4.24516e-10, No Iterations 1
GAMG:  Solving for p, Initial residual = 0.00896895, Final residual = 8.01398e-08, No Iterations 10
time step continuity errors : sum local = 5.22104e-14, global = 2.37355e-14, cumulative = -6.82021e-14
PIMPLE: iteration 14
smoothSolver:  Solving for Ux, Initial residual = 0.000110815, Final residual = 3.19658e-10, No Iterations 1
smoothSolver:  Solving for Uy, Initial residual = 0.000123968, Final residual = 4.30981e-10, No Iterations 1
smoothSolver:  Solving for Uz, Initial residual = 0.000107529, Final residual = 3.69575e-10, No Iterations 1
GAMG:  Solving for p, Initial residual = 0.00637118, Final residual = 5.75806e-08, No Iterations 9
time step continuity errors : sum local = 3.75052e-14, global = 1.71261e-14, cumulative = -5.1076e-14
PIMPLE: iteration 15
smoothSolver:  Solving for Ux, Initial residual = 8.38601e-05, Final residual = 2.73615e-10, No Iterations 1
smoothSolver:  Solving for Uy, Initial residual = 9.26683e-05, Final residual = 3.48809e-10, No Iterations 1
smoothSolver:  Solving for Uz, Initial residual = 7.97384e-05, Final residual = 3.059e-10, No Iterations 1
GAMG:  Solving for p, Initial residual = 0.00459739, Final residual = 8.5821e-08, No Iterations 8
time step continuity errors : sum local = 5.58889e-14, global = -7.1528e-15, cumulative = -5.82288e-14
PIMPLE: iteration 16
smoothSolver:  Solving for Ux, Initial residual = 6.05113e-05, Final residual = 2.02084e-10, No Iterations 1
smoothSolver:  Solving for Uy, Initial residual = 6.52673e-05, Final residual = 2.48267e-10, No Iterations 1
smoothSolver:  Solving for Uz, Initial residual = 5.8024e-05, Final residual = 2.24575e-10, No Iterations 1
GAMG:  Solving for p, Initial residual = 0.00332754, Final residual = 5.82509e-08, No Iterations 9
time step continuity errors : sum local = 3.79273e-14, global = -1.79532e-14, cumulative = -7.6182e-14
PIMPLE: iteration 17
smoothSolver:  Solving for Ux, Initial residual = 4.16148e-05, Final residual = 1.2842e-10, No Iterations 1
smoothSolver:  Solving for Uy, Initial residual = 4.39643e-05, Final residual = 1.56006e-10, No Iterations 1
smoothSolver:  Solving for Uz, Initial residual = 4.05589e-05, Final residual = 1.47466e-10, No Iterations 1
GAMG:  Solving for p, Initial residual = 0.00237503, Final residual = 5.73279e-08, No Iterations 9
time step continuity errors : sum local = 3.73195e-14, global = -1.74761e-14, cumulative = -9.36581e-14
PIMPLE: iteration 18
smoothSolver:  Solving for Ux, Initial residual = 2.74195e-05, Final residual = 7.21571e-11, No Iterations 1
smoothSolver:  Solving for Uy, Initial residual = 2.95904e-05, Final residual = 9.49093e-11, No Iterations 1
smoothSolver:  Solving for Uz, Initial residual = 2.67303e-05, Final residual = 8.77576e-11, No Iterations 1
GAMG:  Solving for p, Initial residual = 0.00168374, Final residual = 8.22256e-08, No Iterations 8
time step continuity errors : sum local = 5.35187e-14, global = -2.56935e-14, cumulative = -1.19352e-13
PIMPLE: iteration 19
smoothSolver:  Solving for Ux, Initial residual = 1.90951e-05, Final residual = 4.43579e-11, No Iterations 1
smoothSolver:  Solving for Uy, Initial residual = 2.10445e-05, Final residual = 6.55521e-11, No Iterations 1
smoothSolver:  Solving for Uz, Initial residual = 1.79672e-05, Final residual = 5.65083e-11, No Iterations 1
GAMG:  Solving for p, Initial residual = 0.00120566, Final residual = 9.05994e-08, No Iterations 7
time step continuity errors : sum local = 5.89614e-14, global = -2.95022e-14, cumulative = -1.48854e-13
PIMPLE: iteration 20
smoothSolver:  Solving for Ux, Initial residual = 1.44505e-05, Final residual = 3.72915e-11, No Iterations 1
smoothSolver:  Solving for Uy, Initial residual = 1.59084e-05, Final residual = 5.26737e-11, No Iterations 1
smoothSolver:  Solving for Uz, Initial residual = 1.35224e-05, Final residual = 4.56341e-11, No Iterations 1
GAMG:  Solving for p, Initial residual = 0.000860872, Final residual = 7.06068e-08, No Iterations 6
time step continuity errors : sum local = 4.5946e-14, global = -2.43698e-14, cumulative = -1.73224e-13
PIMPLE: iteration 21
smoothSolver:  Solving for Ux, Initial residual = 1.07177e-05, Final residual = 3.08954e-11, No Iterations 1
smoothSolver:  Solving for Uy, Initial residual = 1.19224e-05, Final residual = 4.12707e-11, No Iterations 1
smoothSolver:  Solving for Uz, Initial residual = 1.00059e-05, Final residual = 3.5291e-11, No Iterations 1
GAMG:  Solving for p, Initial residual = 0.000614032, Final residual = 7.815e-08, No Iterations 5
time step continuity errors : sum local = 5.08515e-14, global = -1.371e-14, cumulative = -1.86934e-13
PIMPLE: iteration 22
smoothSolver:  Solving for Ux, Initial residual = 7.54458e-06, Final residual = 7.54458e-06, No Iterations 0
smoothSolver:  Solving for Uy, Initial residual = 8.59769e-06, Final residual = 8.59769e-06, No Iterations 0
smoothSolver:  Solving for Uz, Initial residual = 6.95687e-06, Final residual = 6.95687e-06, No Iterations 0
GAMG:  Solving for p, Initial residual = 0.000438037, Final residual = 4.3577e-08, No Iterations 6
time step continuity errors : sum local = 2.83541e-14, global = 1.41372e-14, cumulative = -1.72796e-13
PIMPLE: iteration 23
smoothSolver:  Solving for Ux, Initial residual = 1.73352e-05, Final residual = 5.32034e-10, No Iterations 1
smoothSolver:  Solving for Uy, Initial residual = 2.02726e-05, Final residual = 7.31313e-10, No Iterations 1
smoothSolver:  Solving for Uz, Initial residual = 1.56492e-05, Final residual = 5.9458e-10, No Iterations 1
GAMG:  Solving for p, Initial residual = 0.771374, Final residual = 9.17149e-08, No Iterations 16
time step continuity errors : sum local = 1.12734e-13, global = -5.02865e-14, cumulative = -2.23083e-13
smoothSolver:  Solving for epsilon, Initial residual = 0.441858, Final residual = 2.43876e-10, No Iterations 2
smoothSolver:  Solving for k, Initial residual = 0.651138, Final residual = 3.02881e-09, No Iterations 2
PIMPLE: converged in 23 iterations
ExecutionTime = 16.35 s  ClockTime = 17 s

Courant Number mean: 1.05497e-05 max: 0.000244225
deltaT = 0.0024612
Time = 0.0089355

PIMPLE: iteration 1
smoothSolver:  Solving for Ux, Initial residual = 0.00163069, Final residual = 1.14784e-08, No Iterations 1
smoothSolver:  Solving for Uy, Initial residual = 0.00199581, Final residual = 1.33438e-08, No Iterations 1
smoothSolver:  Solving for Uz, Initial residual = 0.00213167, Final residual = 1.43043e-08, No Iterations 1
GAMG:  Solving for p, Initial residual = 0.807922, Final residual = 5.67413e-08, No Iterations 17
time step continuity errors : sum local = 3.04317e-14, global = 1.35945e-14, cumulative = -2.09488e-13
PIMPLE: iteration 2
smoothSolver:  Solving for Ux, Initial residual = 0.00363356, Final residual = 2.45678e-08, No Iterations 1
smoothSolver:  Solving for Uy, Initial residual = 0.00454469, Final residual = 2.92956e-08, No Iterations 1
smoothSolver:  Solving for Uz, Initial residual = 0.00442842, Final residual = 2.84516e-08, No Iterations 1
GAMG:  Solving for p, Initial residual = 0.424763, Final residual = 5.00805e-08, No Iterations 16
time step continuity errors : sum local = 3.25113e-14, global = 1.45272e-14, cumulative = -1.94961e-13
PIMPLE: iteration 3
smoothSolver:  Solving for Ux, Initial residual = 0.0038884, Final residual = 2.55343e-08, No Iterations 1
smoothSolver:  Solving for Uy, Initial residual = 0.0048801, Final residual = 3.06381e-08, No Iterations 1
smoothSolver:  Solving for Uz, Initial residual = 0.00467764, Final residual = 2.90488e-08, No Iterations 1
GAMG:  Solving for p, Initial residual = 0.24052, Final residual = 5.05724e-08, No Iterations 15
time step continuity errors : sum local = 3.58517e-14, global = 1.56343e-14, cumulative = -1.79327e-13
PIMPLE: iteration 4
smoothSolver:  Solving for Ux, Initial residual = 0.00321855, Final residual = 2.016e-08, No Iterations 1
smoothSolver:  Solving for Uy, Initial residual = 0.0040217, Final residual = 2.43463e-08, No Iterations 1
smoothSolver:  Solving for Uz, Initial residual = 0.00386257, Final residual = 2.26897e-08, No Iterations 1
GAMG:  Solving for p, Initial residual = 0.144915, Final residual = 7.78676e-08, No Iterations 15
time step continuity errors : sum local = 5.73923e-14, global = -2.57244e-14, cumulative = -2.05051e-13
PIMPLE: iteration 5
smoothSolver:  Solving for Ux, Initial residual = 0.00228011, Final residual = 1.31719e-08, No Iterations 1
smoothSolver:  Solving for Uy, Initial residual = 0.00281151, Final residual = 1.60442e-08, No Iterations 1
smoothSolver:  Solving for Uz, Initial residual = 0.00272437, Final residual = 1.4694e-08, No Iterations 1
GAMG:  Solving for p, Initial residual = 0.0968276, Final residual = 7.51747e-08, No Iterations 15
time step continuity errors : sum local = 5.62373e-14, global = -2.51829e-14, cumulative = -2.30234e-13
PIMPLE: iteration 6
smoothSolver:  Solving for Ux, Initial residual = 0.00146387, Final residual = 7.28153e-09, No Iterations 1
smoothSolver:  Solving for Uy, Initial residual = 0.0017344, Final residual = 8.9455e-09, No Iterations 1
smoothSolver:  Solving for Uz, Initial residual = 0.00169876, Final residual = 7.92016e-09, No Iterations 1
GAMG:  Solving for p, Initial residual = 0.0739568, Final residual = 5.83345e-08, No Iterations 15
time step continuity errors : sum local = 4.37266e-14, global = -1.95763e-14, cumulative = -2.49811e-13
PIMPLE: iteration 7
smoothSolver:  Solving for Ux, Initial residual = 0.000925836, Final residual = 3.73359e-09, No Iterations 1
smoothSolver:  Solving for Uy, Initial residual = 0.0010193, Final residual = 4.5283e-09, No Iterations 1
smoothSolver:  Solving for Uz, Initial residual = 0.000995257, Final residual = 3.56775e-09, No Iterations 1
GAMG:  Solving for p, Initial residual = 0.058459, Final residual = 7.57334e-08, No Iterations 14
time step continuity errors : sum local = 5.66165e-14, global = -2.53899e-14, cumulative = -2.752e-13
PIMPLE: iteration 8
smoothSolver:  Solving for Ux, Initial residual = 0.000666529, Final residual = 2.70374e-09, No Iterations 1
smoothSolver:  Solving for Uy, Initial residual = 0.000702414, Final residual = 3.20435e-09, No Iterations 1
smoothSolver:  Solving for Uz, Initial residual = 0.000703329, Final residual = 2.44528e-09, No Iterations 1
GAMG:  Solving for p, Initial residual = 0.0451119, Final residual = 7.91254e-08, No Iterations 13
time step continuity errors : sum local = 5.89527e-14, global = -2.6532e-14, cumulative = -3.01732e-13
PIMPLE: iteration 9
smoothSolver:  Solving for Ux, Initial residual = 0.000529702, Final residual = 2.35175e-09, No Iterations 1
smoothSolver:  Solving for Uy, Initial residual = 0.000555416, Final residual = 2.75899e-09, No Iterations 1
smoothSolver:  Solving for Uz, Initial residual = 0.000537981, Final residual = 2.28688e-09, No Iterations 1
GAMG:  Solving for p, Initial residual = 0.0331823, Final residual = 5.80276e-08, No Iterations 12
time step continuity errors : sum local = 4.3101e-14, global = -1.97882e-14, cumulative = -3.21521e-13
PIMPLE: iteration 10
smoothSolver:  Solving for Ux, Initial residual = 0.000388915, Final residual = 1.72557e-09, No Iterations 1
smoothSolver:  Solving for Uy, Initial residual = 0.000423204, Final residual = 2.1308e-09, No Iterations 1
smoothSolver:  Solving for Uz, Initial residual = 0.000384025, Final residual = 1.82774e-09, No Iterations 1
GAMG:  Solving for p, Initial residual = 0.0237763, Final residual = 5.03336e-08, No Iterations 11
time step continuity errors : sum local = 3.73036e-14, global = 1.68024e-14, cumulative = -3.04718e-13
PIMPLE: iteration 11
smoothSolver:  Solving for Ux, Initial residual = 0.000268075, Final residual = 1.06781e-09, No Iterations 1
smoothSolver:  Solving for Uy, Initial residual = 0.000301036, Final residual = 1.43766e-09, No Iterations 1
smoothSolver:  Solving for Uz, Initial residual = 0.000256403, Final residual = 1.20004e-09, No Iterations 1
GAMG:  Solving for p, Initial residual = 0.0172641, Final residual = 6.97328e-08, No Iterations 11
time step continuity errors : sum local = 5.16085e-14, global = 2.32949e-14, cumulative = -2.81423e-13
PIMPLE: iteration 12
smoothSolver:  Solving for Ux, Initial residual = 0.000183728, Final residual = 5.94497e-10, No Iterations 1
smoothSolver:  Solving for Uy, Initial residual = 0.00020913, Final residual = 8.73505e-10, No Iterations 1
smoothSolver:  Solving for Uz, Initial residual = 0.00017252, Final residual = 6.87495e-10, No Iterations 1
GAMG:  Solving for p, Initial residual = 0.0123999, Final residual = 5.8622e-08, No Iterations 11
time step continuity errors : sum local = 4.33488e-14, global = 1.95713e-14, cumulative = -2.61852e-13
PIMPLE: iteration 13
smoothSolver:  Solving for Ux, Initial residual = 0.000135975, Final residual = 4.38258e-10, No Iterations 1
smoothSolver:  Solving for Uy, Initial residual = 0.000152992, Final residual = 6.34429e-10, No Iterations 1
smoothSolver:  Solving for Uz, Initial residual = 0.000129749, Final residual = 5.299e-10, No Iterations 1
GAMG:  Solving for p, Initial residual = 0.00884494, Final residual = 6.95944e-08, No Iterations 10
time step continuity errors : sum local = 5.14357e-14, global = 2.33733e-14, cumulative = -2.38479e-13
PIMPLE: iteration 14
smoothSolver:  Solving for Ux, Initial residual = 0.000104687, Final residual = 3.9934e-10, No Iterations 1
smoothSolver:  Solving for Uy, Initial residual = 0.000115387, Final residual = 5.37863e-10, No Iterations 1
smoothSolver:  Solving for Uz, Initial residual = 9.86952e-05, Final residual = 4.51642e-10, No Iterations 1
GAMG:  Solving for p, Initial residual = 0.00628475, Final residual = 9.95487e-08, No Iterations 8
time step continuity errors : sum local = 7.35477e-14, global = 3.41009e-14, cumulative = -2.04378e-13
PIMPLE: iteration 15
smoothSolver:  Solving for Ux, Initial residual = 7.90252e-05, Final residual = 3.35975e-10, No Iterations 1
smoothSolver:  Solving for Uy, Initial residual = 8.56215e-05, Final residual = 4.32251e-10, No Iterations 1
smoothSolver:  Solving for Uz, Initial residual = 7.27759e-05, Final residual = 3.68241e-10, No Iterations 1
GAMG:  Solving for p, Initial residual = 0.00451969, Final residual = 8.03763e-08, No Iterations 8
time step continuity errors : sum local = 5.9366e-14, global = -1.54063e-14, cumulative = -2.19784e-13
PIMPLE: iteration 16
smoothSolver:  Solving for Ux, Initial residual = 5.67945e-05, Final residual = 2.48763e-10, No Iterations 1
smoothSolver:  Solving for Uy, Initial residual = 6.03651e-05, Final residual = 3.0782e-10, No Iterations 1
smoothSolver:  Solving for Uz, Initial residual = 5.271e-05, Final residual = 2.71157e-10, No Iterations 1
GAMG:  Solving for p, Initial residual = 0.00326318, Final residual = 5.49423e-08, No Iterations 9
time step continuity errors : sum local = 4.05706e-14, global = -1.92286e-14, cumulative = -2.39013e-13
PIMPLE: iteration 17
smoothSolver:  Solving for Ux, Initial residual = 3.90907e-05, Final residual = 1.59855e-10, No Iterations 1
smoothSolver:  Solving for Uy, Initial residual = 4.09033e-05, Final residual = 1.94231e-10, No Iterations 1
smoothSolver:  Solving for Uz, Initial residual = 3.69679e-05, Final residual = 1.79934e-10, No Iterations 1
GAMG:  Solving for p, Initial residual = 0.00233575, Final residual = 5.27561e-08, No Iterations 9
time step continuity errors : sum local = 3.89482e-14, global = -1.82554e-14, cumulative = -2.57268e-13
PIMPLE: iteration 18
smoothSolver:  Solving for Ux, Initial residual = 2.60896e-05, Final residual = 9.16731e-11, No Iterations 1
smoothSolver:  Solving for Uy, Initial residual = 2.76936e-05, Final residual = 1.19278e-10, No Iterations 1
smoothSolver:  Solving for Uz, Initial residual = 2.46219e-05, Final residual = 1.08694e-10, No Iterations 1
GAMG:  Solving for p, Initial residual = 0.00166221, Final residual = 7.50331e-08, No Iterations 8
time step continuity errors : sum local = 5.53854e-14, global = -2.66323e-14, cumulative = -2.83901e-13
PIMPLE: iteration 19
smoothSolver:  Solving for Ux, Initial residual = 1.81138e-05, Final residual = 5.6293e-11, No Iterations 1
smoothSolver:  Solving for Uy, Initial residual = 1.97044e-05, Final residual = 8.19817e-11, No Iterations 1
smoothSolver:  Solving for Uz, Initial residual = 1.66298e-05, Final residual = 6.99926e-11, No Iterations 1
GAMG:  Solving for p, Initial residual = 0.00118697, Final residual = 8.26226e-08, No Iterations 7
time step continuity errors : sum local = 6.09797e-14, global = -3.06169e-14, cumulative = -3.14517e-13
PIMPLE: iteration 20
smoothSolver:  Solving for Ux, Initial residual = 1.3528e-05, Final residual = 4.57632e-11, No Iterations 1
smoothSolver:  Solving for Uy, Initial residual = 1.47426e-05, Final residual = 6.46128e-11, No Iterations 1
smoothSolver:  Solving for Uz, Initial residual = 1.23222e-05, Final residual = 5.48034e-11, No Iterations 1
GAMG:  Solving for p, Initial residual = 0.000847023, Final residual = 6.45773e-08, No Iterations 6
time step continuity errors : sum local = 4.76571e-14, global = -2.54435e-14, cumulative = -3.39961e-13
PIMPLE: iteration 21
smoothSolver:  Solving for Ux, Initial residual = 9.94286e-06, Final residual = 9.94286e-06, No Iterations 0
smoothSolver:  Solving for Uy, Initial residual = 1.09718e-05, Final residual = 5.00452e-11, No Iterations 1
smoothSolver:  Solving for Uz, Initial residual = 9.02848e-06, Final residual = 9.02848e-06, No Iterations 0
GAMG:  Solving for p, Initial residual = 0.000605339, Final residual = 7.43839e-08, No Iterations 5
time step continuity errors : sum local = 5.48911e-14, global = -1.20668e-14, cumulative = -3.52028e-13
PIMPLE: iteration 22
smoothSolver:  Solving for Ux, Initial residual = 7.02632e-06, Final residual = 7.02632e-06, No Iterations 0
smoothSolver:  Solving for Uy, Initial residual = 7.91387e-06, Final residual = 7.91387e-06, No Iterations 0
smoothSolver:  Solving for Uz, Initial residual = 6.27772e-06, Final residual = 6.27772e-06, No Iterations 0
GAMG:  Solving for p, Initial residual = 0.000431924, Final residual = 9.84514e-08, No Iterations 5
time step continuity errors : sum local = 7.2649e-14, global = 2.296e-14, cumulative = -3.29068e-13
PIMPLE: iteration 23
smoothSolver:  Solving for Ux, Initial residual = 1.62986e-05, Final residual = 6.64308e-10, No Iterations 1
smoothSolver:  Solving for Uy, Initial residual = 1.88133e-05, Final residual = 9.03082e-10, No Iterations 1
smoothSolver:  Solving for Uz, Initial residual = 1.42717e-05, Final residual = 7.07344e-10, No Iterations 1
GAMG:  Solving for p, Initial residual = 0.792856, Final residual = 9.5032e-08, No Iterations 16
time step continuity errors : sum local = 1.30858e-13, global = -5.83484e-14, cumulative = -3.87416e-13
smoothSolver:  Solving for epsilon, Initial residual = 0.486361, Final residual = 5.13332e-10, No Iterations 2
smoothSolver:  Solving for k, Initial residual = 0.584473, Final residual = 5.16195e-09, No Iterations 2
PIMPLE: converged in 23 iterations
ExecutionTime = 23.1 s  ClockTime = 23 s

Courant Number mean: 1.25445e-05 max: 0.000287693
deltaT = 0.00293756
Time = 0.0118731

PIMPLE: iteration 1
smoothSolver:  Solving for Ux, Initial residual = 0.00143254, Final residual = 1.44042e-08, No Iterations 1
smoothSolver:  Solving for Uy, Initial residual = 0.0017146, Final residual = 1.63441e-08, No Iterations 1
smoothSolver:  Solving for Uz, Initial residual = 0.00185221, Final residual = 1.76631e-08, No Iterations 1
GAMG:  Solving for p, Initial residual = 0.82507, Final residual = 5.45211e-08, No Iterations 17
time step continuity errors : sum local = 3.28383e-14, global = 1.46734e-14, cumulative = -3.72743e-13
PIMPLE: iteration 2
smoothSolver:  Solving for Ux, Initial residual = 0.00325149, Final residual = 3.06725e-08, No Iterations 1
smoothSolver:  Solving for Uy, Initial residual = 0.00404368, Final residual = 3.65479e-08, No Iterations 1
smoothSolver:  Solving for Uz, Initial residual = 0.00394977, Final residual = 3.51869e-08, No Iterations 1
GAMG:  Solving for p, Initial residual = 0.434502, Final residual = 4.9968e-08, No Iterations 16
time step continuity errors : sum local = 3.66478e-14, global = 1.63783e-14, cumulative = -3.56364e-13
PIMPLE: iteration 3
smoothSolver:  Solving for Ux, Initial residual = 0.00352136, Final residual = 3.21009e-08, No Iterations 1
smoothSolver:  Solving for Uy, Initial residual = 0.0044109, Final residual = 3.86243e-08, No Iterations 1
smoothSolver:  Solving for Uz, Initial residual = 0.00422597, Final residual = 3.63147e-08, No Iterations 1
GAMG:  Solving for p, Initial residual = 0.247368, Final residual = 5.19992e-08, No Iterations 15
time step continuity errors : sum local = 4.18378e-14, global = 1.81308e-14, cumulative = -3.38234e-13
PIMPLE: iteration 4
smoothSolver:  Solving for Ux, Initial residual = 0.00295034, Final residual = 2.55895e-08, No Iterations 1
smoothSolver:  Solving for Uy, Initial residual = 0.00367918, Final residual = 3.09995e-08, No Iterations 1
smoothSolver:  Solving for Uz, Initial residual = 0.00352752, Final residual = 2.88196e-08, No Iterations 1
GAMG:  Solving for p, Initial residual = 0.148629, Final residual = 7.65083e-08, No Iterations 15
time step continuity errors : sum local = 6.42985e-14, global = -2.88331e-14, cumulative = -3.67067e-13
PIMPLE: iteration 5
smoothSolver:  Solving for Ux, Initial residual = 0.00212499, Final residual = 1.69531e-08, No Iterations 1
smoothSolver:  Solving for Uy, Initial residual = 0.00260494, Final residual = 2.06906e-08, No Iterations 1
smoothSolver:  Solving for Uz, Initial residual = 0.00252279, Final residual = 1.89739e-08, No Iterations 1
GAMG:  Solving for p, Initial residual = 0.097358, Final residual = 7.21533e-08, No Iterations 15
time step continuity errors : sum local = 6.1693e-14, global = -2.76358e-14, cumulative = -3.94703e-13
PIMPLE: iteration 6
smoothSolver:  Solving for Ux, Initial residual = 0.00139529, Final residual = 9.58956e-09, No Iterations 1
smoothSolver:  Solving for Uy, Initial residual = 0.00163557, Final residual = 1.17561e-08, No Iterations 1
smoothSolver:  Solving for Uz, Initial residual = 0.00160333, Final residual = 1.04732e-08, No Iterations 1
GAMG:  Solving for p, Initial residual = 0.0728028, Final residual = 5.5634e-08, No Iterations 15
time step continuity errors : sum local = 4.77825e-14, global = -2.13993e-14, cumulative = -4.16102e-13
PIMPLE: iteration 7
smoothSolver:  Solving for Ux, Initial residual = 0.000898808, Final residual = 5.04646e-09, No Iterations 1
smoothSolver:  Solving for Uy, Initial residual = 0.000977352, Final residual = 6.06219e-09, No Iterations 1
smoothSolver:  Solving for Uz, Initial residual = 0.000960083, Final residual = 4.87912e-09, No Iterations 1
GAMG:  Solving for p, Initial residual = 0.057051, Final residual = 7.23814e-08, No Iterations 14
time step continuity errors : sum local = 6.21327e-14, global = -2.78745e-14, cumulative = -4.43976e-13
PIMPLE: iteration 8
smoothSolver:  Solving for Ux, Initial residual = 0.0006386, Final residual = 3.47914e-09, No Iterations 1
smoothSolver:  Solving for Uy, Initial residual = 0.000666561, Final residual = 4.10876e-09, No Iterations 1
smoothSolver:  Solving for Uz, Initial residual = 0.000658526, Final residual = 3.02852e-09, No Iterations 1
GAMG:  Solving for p, Initial residual = 0.0439774, Final residual = 7.67415e-08, No Iterations 13
time step continuity errors : sum local = 6.57134e-14, global = -2.95908e-14, cumulative = -4.73567e-13
PIMPLE: iteration 9
smoothSolver:  Solving for Ux, Initial residual = 0.00049506, Final residual = 2.95066e-09, No Iterations 1
smoothSolver:  Solving for Uy, Initial residual = 0.000517489, Final residual = 3.4574e-09, No Iterations 1
smoothSolver:  Solving for Uz, Initial residual = 0.000494183, Final residual = 2.73621e-09, No Iterations 1
GAMG:  Solving for p, Initial residual = 0.03242, Final residual = 5.8396e-08, No Iterations 12
time step continuity errors : sum local = 4.98729e-14, global = -2.29193e-14, cumulative = -4.96486e-13
PIMPLE: iteration 10
smoothSolver:  Solving for Ux, Initial residual = 0.000363778, Final residual = 2.16209e-09, No Iterations 1
smoothSolver:  Solving for Uy, Initial residual = 0.000392413, Final residual = 2.6669e-09, No Iterations 1
smoothSolver:  Solving for Uz, Initial residual = 0.000351476, Final residual = 2.18217e-09, No Iterations 1
GAMG:  Solving for p, Initial residual = 0.0233673, Final residual = 9.02176e-08, No Iterations 10
time step continuity errors : sum local = 7.6898e-14, global = 3.48122e-14, cumulative = -4.61674e-13
PIMPLE: iteration 11
smoothSolver:  Solving for Ux, Initial residual = 0.000253326, Final residual = 1.34673e-09, No Iterations 1
smoothSolver:  Solving for Uy, Initial residual = 0.000280603, Final residual = 1.8112e-09, No Iterations 1
smoothSolver:  Solving for Uz, Initial residual = 0.000236433, Final residual = 1.44977e-09, No Iterations 1
GAMG:  Solving for p, Initial residual = 0.0169822, Final residual = 6.08455e-08, No Iterations 11
time step continuity errors : sum local = 5.17927e-14, global = 2.33707e-14, cumulative = -4.38304e-13
PIMPLE: iteration 12
smoothSolver:  Solving for Ux, Initial residual = 0.000175728, Final residual = 7.72918e-10, No Iterations 1
smoothSolver:  Solving for Uy, Initial residual = 0.000196569, Final residual = 1.12026e-09, No Iterations 1
smoothSolver:  Solving for Uz, Initial residual = 0.000159995, Final residual = 8.61663e-10, No Iterations 1
GAMG:  Solving for p, Initial residual = 0.0122078, Final residual = 5.16545e-08, No Iterations 11
time step continuity errors : sum local = 4.39309e-14, global = 1.98306e-14, cumulative = -4.18473e-13
PIMPLE: iteration 13
smoothSolver:  Solving for Ux, Initial residual = 0.00013033, Final residual = 5.80237e-10, No Iterations 1
smoothSolver:  Solving for Uy, Initial residual = 0.000144477, Final residual = 8.23725e-10, No Iterations 1
smoothSolver:  Solving for Uz, Initial residual = 0.000120916, Final residual = 6.82062e-10, No Iterations 1
GAMG:  Solving for p, Initial residual = 0.00872166, Final residual = 6.16975e-08, No Iterations 10
time step continuity errors : sum local = 5.24427e-14, global = 2.38233e-14, cumulative = -3.9465e-13
PIMPLE: iteration 14
[...]
time step continuity errors : sum local = 7.78094e-13, global = 3.5518e-13, cumulative = 7.52908e-11
PIMPLE: iteration 12
smoothSolver:  Solving for Ux, Initial residual = 6.2929e-05, Final residual = 2.43086e-08, No Iterations 1
smoothSolver:  Solving for Uy, Initial residual = 8.4241e-05, Final residual = 2.8971e-08, No Iterations 1
smoothSolver:  Solving for Uz, Initial residual = 4.86837e-05, Final residual = 2.24015e-08, No Iterations 1
GAMG:  Solving for p, Initial residual = 0.0113315, Final residual = 9.24794e-08, No Iterations 7
time step continuity errors : sum local = 7.8461e-13, global = 3.60566e-13, cumulative = 7.56514e-11
PIMPLE: iteration 13
smoothSolver:  Solving for Ux, Initial residual = 4.50627e-05, Final residual = 1.89298e-08, No Iterations 1
smoothSolver:  Solving for Uy, Initial residual = 6.06378e-05, Final residual = 2.24935e-08, No Iterations 1
smoothSolver:  Solving for Uz, Initial residual = 3.5961e-05, Final residual = 1.78924e-08, No Iterations 1
GAMG:  Solving for p, Initial residual = 0.00812407, Final residual = 5.0072e-08, No Iterations 7
time step continuity errors : sum local = 4.24268e-13, global = 1.95387e-13, cumulative = 7.58468e-11
PIMPLE: iteration 14
smoothSolver:  Solving for Ux, Initial residual = 3.23276e-05, Final residual = 1.49979e-08, No Iterations 1
smoothSolver:  Solving for Uy, Initial residual = 4.31369e-05, Final residual = 1.75993e-08, No Iterations 1
smoothSolver:  Solving for Uz, Initial residual = 2.59993e-05, Final residual = 1.43599e-08, No Iterations 1
GAMG:  Solving for p, Initial residual = 0.00585008, Final residual = 8.48265e-08, No Iterations 6
time step continuity errors : sum local = 7.18136e-13, global = 3.25236e-13, cumulative = 7.6172e-11
PIMPLE: iteration 15
smoothSolver:  Solving for Ux, Initial residual = 2.32104e-05, Final residual = 1.18705e-08, No Iterations 1
smoothSolver:  Solving for Uy, Initial residual = 3.08096e-05, Final residual = 1.37936e-08, No Iterations 1
smoothSolver:  Solving for Uz, Initial residual = 1.84689e-05, Final residual = 1.12938e-08, No Iterations 1
GAMG:  Solving for p, Initial residual = 0.00423275, Final residual = 5.75802e-08, No Iterations 7
time step continuity errors : sum local = 4.87199e-13, global = 2.1944e-13, cumulative = 7.63915e-11
PIMPLE: iteration 16
smoothSolver:  Solving for Ux, Initial residual = 1.6685e-05, Final residual = 9.0069e-09, No Iterations 1
smoothSolver:  Solving for Uy, Initial residual = 2.2441e-05, Final residual = 1.03959e-08, No Iterations 1
smoothSolver:  Solving for Uz, Initial residual = 1.3202e-05, Final residual = 8.54614e-09, No Iterations 1
GAMG:  Solving for p, Initial residual = 0.00307265, Final residual = 5.97224e-08, No Iterations 7
time step continuity errors : sum local = 5.05137e-13, global = 2.27762e-13, cumulative = 7.66192e-11
PIMPLE: iteration 17
smoothSolver:  Solving for Ux, Initial residual = 1.19471e-05, Final residual = 6.47652e-09, No Iterations 1
smoothSolver:  Solving for Uy, Initial residual = 1.61777e-05, Final residual = 7.45993e-09, No Iterations 1
smoothSolver:  Solving for Uz, Initial residual = 9.42357e-06, Final residual = 9.42357e-06, No Iterations 0
GAMG:  Solving for p, Initial residual = 0.00221679, Final residual = 5.05024e-08, No Iterations 7
time step continuity errors : sum local = 4.27047e-13, global = 1.92414e-13, cumulative = 7.68116e-11
PIMPLE: iteration 18
smoothSolver:  Solving for Ux, Initial residual = 8.5471e-06, Final residual = 8.5471e-06, No Iterations 0
smoothSolver:  Solving for Uy, Initial residual = 1.15615e-05, Final residual = 5.28026e-09, No Iterations 1
smoothSolver:  Solving for Uz, Initial residual = 6.82505e-06, Final residual = 6.82505e-06, No Iterations 0
GAMG:  Solving for p, Initial residual = 0.00157948, Final residual = 9.05307e-08, No Iterations 6
time step continuity errors : sum local = 7.65394e-13, global = 3.0976e-13, cumulative = 7.71214e-11
PIMPLE: iteration 19
smoothSolver:  Solving for Ux, Initial residual = 6.23554e-06, Final residual = 6.23554e-06, No Iterations 0
smoothSolver:  Solving for Uy, Initial residual = 8.32702e-06, Final residual = 8.32702e-06, No Iterations 0
smoothSolver:  Solving for Uz, Initial residual = 4.96467e-06, Final residual = 4.96467e-06, No Iterations 0
GAMG:  Solving for p, Initial residual = 0.00111598, Final residual = 6.26805e-08, No Iterations 6
time step continuity errors : sum local = 5.2987e-13, global = 1.84486e-13, cumulative = 7.73059e-11
PIMPLE: iteration 20
smoothSolver:  Solving for Ux, Initial residual = 4.61339e-06, Final residual = 4.61339e-06, No Iterations 0
smoothSolver:  Solving for Uy, Initial residual = 6.12443e-06, Final residual = 6.12443e-06, No Iterations 0
smoothSolver:  Solving for Uz, Initial residual = 3.62913e-06, Final residual = 3.62913e-06, No Iterations 0
GAMG:  Solving for p, Initial residual = 0.000790695, Final residual = 8.43449e-08, No Iterations 5
time step continuity errors : sum local = 7.1295e-13, global = 1.04247e-13, cumulative = 7.74101e-11
PIMPLE: iteration 21
smoothSolver:  Solving for Ux, Initial residual = 3.38776e-06, Final residual = 3.38776e-06, No Iterations 0
smoothSolver:  Solving for Uy, Initial residual = 4.50058e-06, Final residual = 4.50058e-06, No Iterations 0
smoothSolver:  Solving for Uz, Initial residual = 2.64772e-06, Final residual = 2.64772e-06, No Iterations 0
GAMG:  Solving for p, Initial residual = 0.000565486, Final residual = 4.33481e-08, No Iterations 5
time step continuity errors : sum local = 3.66391e-13, global = -4.12983e-14, cumulative = 7.73688e-11
PIMPLE: iteration 22
smoothSolver:  Solving for Ux, Initial residual = 2.47015e-06, Final residual = 2.47015e-06, No Iterations 0
smoothSolver:  Solving for Uy, Initial residual = 3.29877e-06, Final residual = 3.29877e-06, No Iterations 0
smoothSolver:  Solving for Uz, Initial residual = 1.91287e-06, Final residual = 1.91287e-06, No Iterations 0
GAMG:  Solving for p, Initial residual = 0.000407465, Final residual = 6.53567e-08, No Iterations 4
time step continuity errors : sum local = 5.52393e-13, global = -1.23106e-13, cumulative = 7.72457e-11
PIMPLE: iteration 23
smoothSolver:  Solving for Ux, Initial residual = 6.89311e-06, Final residual = 6.89311e-06, No Iterations 0
smoothSolver:  Solving for Uy, Initial residual = 9.30835e-06, Final residual = 9.30835e-06, No Iterations 0
smoothSolver:  Solving for Uz, Initial residual = 5.35591e-06, Final residual = 5.35591e-06, No Iterations 0
GAMG:  Solving for p, Initial residual = 0.761859, Final residual = 8.84684e-08, No Iterations 14
time step continuity errors : sum local = 1.42875e-12, global = 6.49777e-13, cumulative = 7.78955e-11
smoothSolver:  Solving for epsilon, Initial residual = 0.000182523, Final residual = 2.72553e-06, No Iterations 1
smoothSolver:  Solving for k, Initial residual = 0.00886086, Final residual = 6.10123e-06, No Iterations 2
PIMPLE: converged in 23 iterations
ExecutionTime = 386.86 s  ClockTime = 402 s

Courant Number mean: 0.00044064 max: 0.00394684
deltaT = 0.05
Time = 5

PIMPLE: iteration 1
smoothSolver:  Solving for Ux, Initial residual = 0.00028847, Final residual = 2.51505e-07, No Iterations 1
smoothSolver:  Solving for Uy, Initial residual = 0.000315348, Final residual = 2.52184e-07, No Iterations 1
smoothSolver:  Solving for Uz, Initial residual = 0.000263924, Final residual = 2.73845e-07, No Iterations 1
GAMG:  Solving for p, Initial residual = 0.803494, Final residual = 5.82411e-08, No Iterations 15
time step continuity errors : sum local = 3.68052e-13, global = -1.67155e-13, cumulative = 7.77284e-11
PIMPLE: iteration 2
smoothSolver:  Solving for Ux, Initial residual = 0.00065391, Final residual = 3.20843e-07, No Iterations 1
smoothSolver:  Solving for Uy, Initial residual = 0.000872979, Final residual = 3.7525e-07, No Iterations 1
smoothSolver:  Solving for Uz, Initial residual = 0.00060994, Final residual = 3.15887e-07, No Iterations 1
GAMG:  Solving for p, Initial residual = 0.442157, Final residual = 6.43816e-08, No Iterations 14
time step continuity errors : sum local = 4.85199e-13, global = -2.20461e-13, cumulative = 7.75079e-11
PIMPLE: iteration 3
smoothSolver:  Solving for Ux, Initial residual = 0.000850057, Final residual = 3.85574e-07, No Iterations 1
smoothSolver:  Solving for Uy, Initial residual = 0.00115617, Final residual = 4.72937e-07, No Iterations 1
smoothSolver:  Solving for Uz, Initial residual = 0.00075665, Final residual = 3.33431e-07, No Iterations 1
GAMG:  Solving for p, Initial residual = 0.250769, Final residual = 6.89889e-08, No Iterations 13
time step continuity errors : sum local = 5.65966e-13, global = -2.57389e-13, cumulative = 7.72505e-11
PIMPLE: iteration 4
smoothSolver:  Solving for Ux, Initial residual = 0.000812316, Final residual = 3.53968e-07, No Iterations 1
smoothSolver:  Solving for Uy, Initial residual = 0.00110724, Final residual = 4.39815e-07, No Iterations 1
smoothSolver:  Solving for Uz, Initial residual = 0.000704333, Final residual = 2.92708e-07, No Iterations 1
GAMG:  Solving for p, Initial residual = 0.143938, Final residual = 9.65206e-08, No Iterations 12
time step continuity errors : sum local = 8.22538e-13, global = -3.7664e-13, cumulative = 7.68739e-11
PIMPLE: iteration 5
smoothSolver:  Solving for Ux, Initial residual = 0.000666166, Final residual = 2.75619e-07, No Iterations 1
smoothSolver:  Solving for Uy, Initial residual = 0.000905489, Final residual = 3.44803e-07, No Iterations 1
smoothSolver:  Solving for Uz, Initial residual = 0.000563025, Final residual = 2.25984e-07, No Iterations 1
GAMG:  Solving for p, Initial residual = 0.0876905, Final residual = 7.91764e-08, No Iterations 12
time step continuity errors : sum local = 6.84116e-13, global = -3.25155e-13, cumulative = 7.65487e-11
PIMPLE: iteration 6
smoothSolver:  Solving for Ux, Initial residual = 0.000497621, Final residual = 1.9135e-07, No Iterations 1
smoothSolver:  Solving for Uy, Initial residual = 0.000673026, Final residual = 2.40498e-07, No Iterations 1
smoothSolver:  Solving for Uz, Initial residual = 0.000407452, Final residual = 1.59848e-07, No Iterations 1
GAMG:  Solving for p, Initial residual = 0.0615043, Final residual = 7.19182e-08, No Iterations 12
time step continuity errors : sum local = 6.22589e-13, global = 2.76411e-13, cumulative = 7.68251e-11
PIMPLE: iteration 7
smoothSolver:  Solving for Ux, Initial residual = 0.000351586, Final residual = 1.24487e-07, No Iterations 1
smoothSolver:  Solving for Uy, Initial residual = 0.000472448, Final residual = 1.56891e-07, No Iterations 1
smoothSolver:  Solving for Uz, Initial residual = 0.000276392, Final residual = 1.08163e-07, No Iterations 1
GAMG:  Solving for p, Initial residual = 0.0491367, Final residual = 6.12e-08, No Iterations 12
time step continuity errors : sum local = 5.28135e-13, global = 2.37659e-13, cumulative = 7.70628e-11
PIMPLE: iteration 8
smoothSolver:  Solving for Ux, Initial residual = 0.000248227, Final residual = 8.35172e-08, No Iterations 1
smoothSolver:  Solving for Uy, Initial residual = 0.000327557, Final residual = 1.03912e-07, No Iterations 1
smoothSolver:  Solving for Uz, Initial residual = 0.000183835, Final residual = 7.362e-08, No Iterations 1
GAMG:  Solving for p, Initial residual = 0.039171, Final residual = 8.72543e-08, No Iterations 11
time step continuity errors : sum local = 7.49481e-13, global = 3.37975e-13, cumulative = 7.74008e-11
PIMPLE: iteration 9
smoothSolver:  Solving for Ux, Initial residual = 0.000175532, Final residual = 5.93043e-08, No Iterations 1
smoothSolver:  Solving for Uy, Initial residual = 0.000228518, Final residual = 7.26202e-08, No Iterations 1
smoothSolver:  Solving for Uz, Initial residual = 0.000124361, Final residual = 5.198e-08, No Iterations 1
GAMG:  Solving for p, Initial residual = 0.0297074, Final residual = 5.14065e-08, No Iterations 11
time step continuity errors : sum local = 4.39573e-13, global = 1.9888e-13, cumulative = 7.75996e-11
PIMPLE: iteration 10
smoothSolver:  Solving for Ux, Initial residual = 0.000124439, Final residual = 4.36011e-08, No Iterations 1
smoothSolver:  Solving for Uy, Initial residual = 0.000161813, Final residual = 5.26172e-08, No Iterations 1
smoothSolver:  Solving for Uz, Initial residual = 8.77645e-05, Final residual = 3.80067e-08, No Iterations 1
GAMG:  Solving for p, Initial residual = 0.0219503, Final residual = 4.98659e-08, No Iterations 10
time step continuity errors : sum local = 4.24822e-13, global = 1.92634e-13, cumulative = 7.77923e-11
PIMPLE: iteration 11
smoothSolver:  Solving for Ux, Initial residual = 8.85286e-05, Final residual = 3.21399e-08, No Iterations 1
smoothSolver:  Solving for Uy, Initial residual = 0.00011651, Final residual = 3.83309e-08, No Iterations 1
smoothSolver:  Solving for Uz, Initial residual = 6.53495e-05, Final residual = 2.84995e-08, No Iterations 1
GAMG:  Solving for p, Initial residual = 0.0158428, Final residual = 9.12496e-08, No Iterations 8
time step continuity errors : sum local = 7.75242e-13, global = 3.53617e-13, cumulative = 7.81459e-11
PIMPLE: iteration 12
smoothSolver:  Solving for Ux, Initial residual = 6.27557e-05, Final residual = 2.39715e-08, No Iterations 1
smoothSolver:  Solving for Uy, Initial residual = 8.40712e-05, Final residual = 2.85834e-08, No Iterations 1
smoothSolver:  Solving for Uz, Initial residual = 4.85043e-05, Final residual = 2.2035e-08, No Iterations 1
GAMG:  Solving for p, Initial residual = 0.0113322, Final residual = 9.15316e-08, No Iterations 7
time step continuity errors : sum local = 7.76136e-13, global = 3.56215e-13, cumulative = 7.85021e-11
PIMPLE: iteration 13
smoothSolver:  Solving for Ux, Initial residual = 4.49325e-05, Final residual = 1.86553e-08, No Iterations 1
smoothSolver:  Solving for Uy, Initial residual = 6.05096e-05, Final residual = 2.21882e-08, No Iterations 1
smoothSolver:  Solving for Uz, Initial residual = 3.58206e-05, Final residual = 1.75883e-08, No Iterations 1
GAMG:  Solving for p, Initial residual = 0.00812452, Final residual = 4.96058e-08, No Iterations 7
time step continuity errors : sum local = 4.20083e-13, global = 1.93226e-13, cumulative = 7.86953e-11
PIMPLE: iteration 14
smoothSolver:  Solving for Ux, Initial residual = 3.223e-05, Final residual = 1.47728e-08, No Iterations 1
smoothSolver:  Solving for Uy, Initial residual = 4.30386e-05, Final residual = 1.73502e-08, No Iterations 1
smoothSolver:  Solving for Uz, Initial residual = 2.58892e-05, Final residual = 1.41095e-08, No Iterations 1
GAMG:  Solving for p, Initial residual = 0.0058504, Final residual = 8.51567e-08, No Iterations 6
time step continuity errors : sum local = 7.20532e-13, global = 3.26923e-13, cumulative = 7.90223e-11
PIMPLE: iteration 15
smoothSolver:  Solving for Ux, Initial residual = 2.31349e-05, Final residual = 1.16912e-08, No Iterations 1
smoothSolver:  Solving for Uy, Initial residual = 3.07331e-05, Final residual = 1.35955e-08, No Iterations 1
smoothSolver:  Solving for Uz, Initial residual = 1.83855e-05, Final residual = 1.10943e-08, No Iterations 1
GAMG:  Solving for p, Initial residual = 0.00423247, Final residual = 5.74352e-08, No Iterations 7
time step continuity errors : sum local = 4.85703e-13, global = 2.18787e-13, cumulative = 7.9241e-11
PIMPLE: iteration 16
smoothSolver:  Solving for Ux, Initial residual = 1.66292e-05, Final residual = 8.87041e-09, No Iterations 1
smoothSolver:  Solving for Uy, Initial residual = 2.23843e-05, Final residual = 1.02464e-08, No Iterations 1
smoothSolver:  Solving for Uz, Initial residual = 1.31413e-05, Final residual = 8.39385e-09, No Iterations 1
GAMG:  Solving for p, Initial residual = 0.00307217, Final residual = 5.93607e-08, No Iterations 7
time step continuity errors : sum local = 5.018e-13, global = 2.26275e-13, cumulative = 7.94673e-11
PIMPLE: iteration 17
smoothSolver:  Solving for Ux, Initial residual = 1.19073e-05, Final residual = 6.37751e-09, No Iterations 1
smoothSolver:  Solving for Uy, Initial residual = 1.61374e-05, Final residual = 7.35173e-09, No Iterations 1
smoothSolver:  Solving for Uz, Initial residual = 9.37978e-06, Final residual = 9.37978e-06, No Iterations 0
GAMG:  Solving for p, Initial residual = 0.00221626, Final residual = 5.01026e-08, No Iterations 7
time step continuity errors : sum local = 4.23432e-13, global = 1.90846e-13, cumulative = 7.96582e-11
PIMPLE: iteration 18
smoothSolver:  Solving for Ux, Initial residual = 8.51791e-06, Final residual = 8.51791e-06, No Iterations 0
smoothSolver:  Solving for Uy, Initial residual = 1.15322e-05, Final residual = 5.20289e-09, No Iterations 1
smoothSolver:  Solving for Uz, Initial residual = 6.79283e-06, Final residual = 6.79283e-06, No Iterations 0
GAMG:  Solving for p, Initial residual = 0.00157912, Final residual = 8.96196e-08, No Iterations 6
time step continuity errors : sum local = 7.57272e-13, global = 3.09552e-13, cumulative = 7.99677e-11
PIMPLE: iteration 19
smoothSolver:  Solving for Ux, Initial residual = 6.21283e-06, Final residual = 6.21283e-06, No Iterations 0
smoothSolver:  Solving for Uy, Initial residual = 8.30464e-06, Final residual = 8.30464e-06, No Iterations 0
smoothSolver:  Solving for Uz, Initial residual = 4.94083e-06, Final residual = 4.94083e-06, No Iterations 0
GAMG:  Solving for p, Initial residual = 0.00111572, Final residual = 6.21994e-08, No Iterations 6
time step continuity errors : sum local = 5.25512e-13, global = 1.85502e-13, cumulative = 8.01532e-11
PIMPLE: iteration 20
smoothSolver:  Solving for Ux, Initial residual = 4.59564e-06, Final residual = 4.59564e-06, No Iterations 0
smoothSolver:  Solving for Uy, Initial residual = 6.10677e-06, Final residual = 6.10677e-06, No Iterations 0
smoothSolver:  Solving for Uz, Initial residual = 3.61112e-06, Final residual = 3.61112e-06, No Iterations 0
GAMG:  Solving for p, Initial residual = 0.000790516, Final residual = 8.4253e-08, No Iterations 5
time step continuity errors : sum local = 7.11779e-13, global = 1.06206e-13, cumulative = 8.02594e-11
PIMPLE: iteration 21
smoothSolver:  Solving for Ux, Initial residual = 3.37371e-06, Final residual = 3.37371e-06, No Iterations 0
smoothSolver:  Solving for Uy, Initial residual = 4.48665e-06, Final residual = 4.48665e-06, No Iterations 0
smoothSolver:  Solving for Uz, Initial residual = 2.63355e-06, Final residual = 2.63355e-06, No Iterations 0
GAMG:  Solving for p, Initial residual = 0.000565338, Final residual = 4.36046e-08, No Iterations 5
time step continuity errors : sum local = 3.68355e-13, global = -4.01605e-14, cumulative = 8.02193e-11
PIMPLE: iteration 22
smoothSolver:  Solving for Ux, Initial residual = 2.45921e-06, Final residual = 2.45921e-06, No Iterations 0
smoothSolver:  Solving for Uy, Initial residual = 3.28759e-06, Final residual = 3.28759e-06, No Iterations 0
smoothSolver:  Solving for Uz, Initial residual = 1.90166e-06, Final residual = 1.90166e-06, No Iterations 0
GAMG:  Solving for p, Initial residual = 0.000407342, Final residual = 6.56111e-08, No Iterations 4
time step continuity errors : sum local = 5.54236e-13, global = -1.22348e-13, cumulative = 8.00969e-11
PIMPLE: iteration 23
smoothSolver:  Solving for Ux, Initial residual = 6.8557e-06, Final residual = 6.8557e-06, No Iterations 0
smoothSolver:  Solving for Uy, Initial residual = 9.26727e-06, Final residual = 9.26727e-06, No Iterations 0
smoothSolver:  Solving for Uz, Initial residual = 5.31814e-06, Final residual = 5.31814e-06, No Iterations 0
GAMG:  Solving for p, Initial residual = 0.762608, Final residual = 8.87495e-08, No Iterations 14
time step continuity errors : sum local = 1.43181e-12, global = 6.51112e-13, cumulative = 8.0748e-11
smoothSolver:  Solving for epsilon, Initial residual = 0.000176864, Final residual = 2.62086e-06, No Iterations 1
smoothSolver:  Solving for k, Initial residual = 0.00869695, Final residual = 5.90575e-06, No Iterations 2
PIMPLE: converged in 23 iterations
ExecutionTime = 390.19 s  ClockTime = 406 s

End

